@<TRIPOS>MOLECULE
45E
   55    57     1     0     0
SMALL
bcc


@<TRIPOS>ATOM
      1 O17          0.0000     0.0000     0.0000 o          1 45E      -0.615100
      2 C16          1.2130     0.0000     0.0000 c          1 45E       0.582100
      3 C18          1.9670     0.0000     1.3050 c3         1 45E       0.131400
      4 O19          1.0400    -0.0010     2.3910 os         1 45E      -0.267900
      5 C20          1.5590    -0.0010     3.6470 ca         1 45E       0.149100
      6 C26          0.7160    -0.0020     4.7480 ca         1 45E      -0.137000
      7 C24          1.2470    -0.0030     6.0230 ca         1 45E      -0.047300
      8 C25          0.3310    -0.0040     7.2210 c3         1 45E       0.062200
      9 C23          2.6180    -0.0020     6.2020 ca         1 45E      -0.145000
     10 C22          3.4610    -0.0010     5.1060 ca         1 45E      -0.051000
     11 C21          2.9350    -0.0080     3.8290 ca         1 45E      -0.224000
     12 N13          1.8870    -0.0050    -1.1680 n          1 45E      -0.165800
     13 C12          1.1640    -0.0110    -2.4470 c3         1 45E       0.033000
     14 C11          1.6440     1.1800    -3.2860 c3         1 45E       0.019500
     15 C14          3.3560     0.0010    -1.1840 c3         1 45E       0.033000
     16 C15          3.8320     1.1920    -2.0250 c3         1 45E       0.019500
     17 N10          3.1140     1.1810    -3.3020 n          1 45E      -0.160800
     18 C8           3.7900     1.1760    -4.4690 c          1 45E       0.617700
     19 O9           5.0030     1.2540    -4.4690 o          1 45E      -0.617100
     20 C7           3.0570     1.0770    -5.7450 ca         1 45E      -0.139600
     21 C6           2.0310     1.9820    -6.0390 ca         1 45E      -0.121000
     22 C5           1.3490     1.8870    -7.2320 ca         1 45E      -0.069000
     23 C4           1.6740     0.8970    -8.1460 ca         1 45E      -0.187000
     24 C27          3.3880     0.0820    -6.6720 ca         1 45E       0.138100
     25 O28          4.3810    -0.8020    -6.3980 os         1 45E      -0.307900
     26 C29          4.0100    -2.0080    -5.7270 c3         1 45E       0.252700
     27 C3           2.6860    -0.0050    -7.8710 ca         1 45E       0.125100
     28 O2           2.9980    -0.9740    -8.7730 os         1 45E      -0.290900
     29 C1           2.2400    -1.0010    -9.9840 c3         1 45E       0.240700
     30 H1           2.5890     0.8850     1.3620 h1         1 45E       0.017700
     31 H2           2.5900    -0.8840     1.3620 h1         1 45E       0.017700
     32 H3          -0.3580    -0.0230     4.6080 ha         1 45E       0.123000
     33 H4          -0.4570     0.7250     7.0730 hc         1 45E       0.009033
     34 H5           0.8970     0.2510     8.1080 hc         1 45E       0.009033
     35 H6          -0.1050    -0.9880     7.3410 hc         1 45E       0.009033
     36 H7           3.0330    -0.0000     7.2030 ha         1 45E       0.109000
     37 H8           4.5350    -0.0040     5.2490 ha         1 45E       0.100000
     38 H9           3.5950    -0.0070     2.9710 ha         1 45E       0.112000
     39 H10          0.1000     0.0810    -2.2630 h1         1 45E       0.036700
     40 H11          1.3690    -0.9340    -2.9760 h1         1 45E       0.036700
     41 H12          1.2710     1.0840    -4.2990 h1         1 45E       0.043950
     42 H13          1.2860     2.1020    -2.8460 h1         1 45E       0.043950
     43 H14          3.7290     0.1000    -0.1710 h1         1 45E       0.036700
     44 H15          3.7180    -0.9210    -1.6230 h1         1 45E       0.036700
     45 H16          4.8960     1.1060    -2.2070 h1         1 45E       0.043950
     46 H17          3.6210     2.1150    -1.4990 h1         1 45E       0.043950
     47 H18          1.7730     2.7570    -5.3280 ha         1 45E       0.115000
     48 H19          0.5550     2.5890    -7.4560 ha         1 45E       0.106000
     49 H20          1.1300     0.8290    -9.0810 ha         1 45E       0.124000
     50 H21          2.9470    -1.9930    -5.5190 h1         1 45E      -0.008967
     51 H22          4.5590    -2.0870    -4.7960 h1         1 45E      -0.008967
     52 H23          4.2440    -2.8580    -6.3570 h1         1 45E      -0.008967
     53 H24          2.5820    -1.8190   -10.6050 h1         1 45E      -0.000967
     54 H25          2.3720    -0.0650   -10.5140 h1         1 45E      -0.000967
     55 H26          1.1910    -1.1380    -9.7500 h1         1 45E      -0.000967
@<TRIPOS>BOND
     1     1     2 2   
     2     2     3 1   
     3     2    12 1   
     4     3     4 1   
     5     3    30 1   
     6     3    31 1   
     7     4     5 1   
     8     5     6 ar  
     9     5    11 ar  
    10     6     7 ar  
    11     6    32 1   
    12     7     8 1   
    13     7     9 ar  
    14     8    33 1   
    15     8    34 1   
    16     8    35 1   
    17     9    10 ar  
    18     9    36 1   
    19    10    11 ar  
    20    10    37 1   
    21    11    38 1   
    22    12    13 1   
    23    12    15 1   
    24    13    14 1   
    25    13    39 1   
    26    13    40 1   
    27    14    17 1   
    28    14    41 1   
    29    14    42 1   
    30    15    16 1   
    31    15    43 1   
    32    15    44 1   
    33    16    17 1   
    34    16    45 1   
    35    16    46 1   
    36    17    18 1   
    37    18    19 2   
    38    18    20 1   
    39    20    21 ar  
    40    20    24 ar  
    41    21    22 ar  
    42    21    47 1   
    43    22    23 ar  
    44    22    48 1   
    45    23    27 ar  
    46    23    49 1   
    47    24    25 1   
    48    24    27 ar  
    49    25    26 1   
    50    26    50 1   
    51    26    51 1   
    52    26    52 1   
    53    27    28 1   
    54    28    29 1   
    55    29    53 1   
    56    29    54 1   
    57    29    55 1   
@<TRIPOS>SUBSTRUCTURE
     1 45E         1 TEMP              0 ****  ****    0 ROOT
