@<TRIPOS>MOLECULE
molecule
   55    57     1     0     0
SMALL
bcc


@<TRIPOS>ATOM
      1 O17          0.0000     0.0000     0.0000 o          1 45E      -0.574100
      2 C16          1.2130     0.0000     0.0000 c          1 45E       0.661100
      3 C18          1.9670     0.0000     1.3050 c3         1 45E       0.068400
      4 O19          1.0400    -0.0010     2.3910 os         1 45E      -0.297900
      5 C20          1.5590    -0.0010     3.6470 ca         1 45E       0.143100
      6 C26          0.7160    -0.0020     4.7480 ca         1 45E      -0.153000
      7 C24          1.2470    -0.0030     6.0230 ca         1 45E      -0.045300
      8 C25          0.3310    -0.0040     7.2210 c3         1 45E      -0.047800
      9 C23          2.6180    -0.0020     6.2020 ca         1 45E      -0.165000
     10 C22          3.4610    -0.0010     5.1060 ca         1 45E      -0.086000
     11 C21          2.9350    -0.0080     3.8290 ca         1 45E      -0.232000
     12 N13          1.8870    -0.0050    -1.1680 n          1 45E      -0.497800
     13 C12          1.1640    -0.0110    -2.4470 c3         1 45E       0.087000
     14 C11          1.6440     1.1800    -3.2860 c3         1 45E       0.082000
     15 C14          3.3560     0.0010    -1.1840 c3         1 45E       0.087000
     16 C15          3.8320     1.1920    -2.0250 c3         1 45E       0.082000
     17 N10          3.1140     1.1810    -3.3020 n          1 45E      -0.493800
     18 C8           3.7900     1.1760    -4.4690 c          1 45E       0.679700
     19 O9           5.0030     1.2540    -4.4690 o          1 45E      -0.575100
     20 C7           3.0570     1.0770    -5.7450 ca         1 45E      -0.127600
     21 C6           2.0310     1.9820    -6.0390 ca         1 45E      -0.142000
     22 C5           1.3490     1.8870    -7.2320 ca         1 45E      -0.102000
     23 C4           1.6740     0.8970    -8.1460 ca         1 45E      -0.200000
     24 C27          3.3880     0.0820    -6.6720 ca         1 45E       0.130100
     25 O28          4.3810    -0.8020    -6.3980 os         1 45E      -0.322900
     26 C29          4.0100    -2.0080    -5.7270 c3         1 45E       0.136700
     27 C3           2.6860    -0.0050    -7.8710 ca         1 45E       0.120100
     28 O2           2.9980    -0.9740    -8.7730 os         1 45E      -0.311900
     29 C1           2.2400    -1.0010    -9.9840 c3         1 45E       0.125700
     30 H1           2.5890     0.8850     1.3620 h1         1 45E       0.053700
     31 H2           2.5900    -0.8840     1.3620 h1         1 45E       0.053700
     32 H3          -0.3580    -0.0230     4.6080 ha         1 45E       0.149000
     33 H4          -0.4570     0.7250     7.0730 hc         1 45E       0.045700
     34 H5           0.8970     0.2510     8.1080 hc         1 45E       0.045700
     35 H6          -0.1050    -0.9880     7.3410 hc         1 45E       0.045700
     36 H7           3.0330    -0.0000     7.2030 ha         1 45E       0.132000
     37 H8           4.5350    -0.0040     5.2490 ha         1 45E       0.130000
     38 H9           3.5950    -0.0070     2.9710 ha         1 45E       0.126000
     39 H10          0.1000     0.0810    -2.2630 h1         1 45E       0.063700
     40 H11          1.3690    -0.9340    -2.9760 h1         1 45E       0.063700
     41 H12          1.2710     1.0840    -4.2990 h1         1 45E       0.069200
     42 H13          1.2860     2.1020    -2.8460 h1         1 45E       0.069200
     43 H14          3.7290     0.1000    -0.1710 h1         1 45E       0.063700
     44 H15          3.7180    -0.9210    -1.6230 h1         1 45E       0.063700
     45 H16          4.8960     1.1060    -2.2070 h1         1 45E       0.069200
     46 H17          3.6210     2.1150    -1.4990 h1         1 45E       0.069200
     47 H18          1.7730     2.7570    -5.3280 ha         1 45E       0.141000
     48 H19          0.5550     2.5890    -7.4560 ha         1 45E       0.137000
     49 H20          1.1300     0.8290    -9.0810 ha         1 45E       0.142000
     50 H21          2.9470    -1.9930    -5.5190 h1         1 45E       0.036033
     51 H22          4.5590    -2.0870    -4.7960 h1         1 45E       0.036033
     52 H23          4.2440    -2.8580    -6.3570 h1         1 45E       0.036033
     53 H24          2.5820    -1.8190   -10.6050 h1         1 45E       0.043367
     54 H25          2.3720    -0.0650   -10.5140 h1         1 45E       0.043367
     55 H26          1.1910    -1.1380    -9.7500 h1         1 45E       0.043367
@<TRIPOS>BOND
     1    29    28 1
     2    28    27 1
     3    25    26 1
     4    25    24 1
     5    27    23 ar
     6    27    24 ar
     7    23    22 ar
     8    24    20 ar
     9    22    21 ar
    10    20    21 ar
    11    20    18 1
    12    19    18 2
    13    18    17 1
    14    17    16 1
    15    17    14 1
    16    16    15 1
    17    14    13 1
    18    15    12 1
    19    13    12 1
    20    12     2 1
    21     2     1 2
    22     2     3 1
    23     3     4 1
    24     4     5 1
    25     5     6 ar
    26     5    11 ar
    27     6     7 ar
    28    11    10 ar
    29     7     8 1
    30     7     9 ar
    31    10     9 ar
    32     3    30 1
    33     3    31 1
    34     6    32 1
    35     8    33 1
    36     8    34 1
    37     8    35 1
    38     9    36 1
    39    10    37 1
    40    11    38 1
    41    13    39 1
    42    13    40 1
    43    14    41 1
    44    14    42 1
    45    15    43 1
    46    15    44 1
    47    16    45 1
    48    16    46 1
    49    21    47 1
    50    22    48 1
    51    23    49 1
    52    26    50 1
    53    26    51 1
    54    26    52 1
    55    29    53 1
    56    29    54 1
    57    29    55 1
@<TRIPOS>SUBSTRUCTURE
     1 45E         1 TEMP              0 ****  ****    0 ROOT
