@<TRIPOS>MOLECULE
molecule
   22    22     1     0     0
SMALL
bcc


@<TRIPOS>ATOM
      1 CB           0.0000     0.0000     0.0000 c3         1 45F      -0.109400
      2 CD           0.7740     0.0210     2.2750 c3         1 45F       0.118800
      3 C            2.0550     1.2350    -0.6950 c          1 45F       0.904600
      4 O            2.4310     2.1820    -0.0450 o          1 45F      -0.836300
      5 CA           1.5430     0.0000     0.0000 c3         1 45F       0.070500
      6 CG          -0.3540    -0.5760     1.3960 c3         1 45F       0.135100
      7 N            1.9800     0.0000     1.4080 n7         1 45F      -0.752200
      8 O48         -1.6370    -0.1200     1.8300 os         1 45F      -0.404600
      9 C49         -2.2630    -0.9720     2.7910 c3         1 45F       0.216500
     10 C50         -3.5700    -0.4110     3.1660 c1         1 45F      -0.120100
     11 C51         -4.6100     0.0520     3.4520 c1         1 45F      -0.162500
     12 HB3         -0.3730    -1.0170    -0.0220 hc         1 45F       0.065700
     13 HB2         -0.3730     0.5620    -0.8480 hc         1 45F       0.065700
     14 HD2          1.2290    -0.7560     2.8770 h1         1 45F       0.031700
     15 HD3          0.3780     0.8080     2.9050 h1         1 45F       0.031700
     16 HA           1.9100    -0.8890    -0.4980 h1         1 45F       0.031700
     17 HG2         -0.3020    -1.6580     1.3890 h1         1 45F       0.013700
     18 H49         -1.6590    -1.0100     3.6890 h1         1 45F       0.033200
     19 H50         -2.3610    -1.9690     2.3790 h1         1 45F       0.033200
     20 H51         -5.5760     0.4620     3.7230 ha         1 45F       0.157500
     21 H            2.3410    -0.8430     1.8110 hn         1 45F       0.312800
     22 OXT          2.0940     1.2840    -2.0360 o          1 45F      -0.836300
@<TRIPOS>BOND
     1    11    10 3
     2     4     3 1
     3    10     9 1
     4     7     2 1
     5     7     5 1
     6     8     9 1
     7     8     6 1
     8     2     6 1
     9     3     5 1
    10     5     1 1
    11     6     1 1
    12     1    12 1
    13     1    13 1
    14     2    14 1
    15     2    15 1
    16     5    16 1
    17     6    17 1
    18     9    18 1
    19     9    19 1
    20    11    20 1
    21     7    21 1
    22     3    22 1
@<TRIPOS>SUBSTRUCTURE
     1 45F         1 TEMP              0 ****  ****    0 ROOT
