@<TRIPOS>MOLECULE
molecule
   94    95     1     0     0
SMALL
bcc


@<TRIPOS>ATOM
      1 O01          0.0000     0.0000     0.0000 o          1 45H      -0.539600
      2 O02          8.6400   -19.3870   -16.5640 o          1 45H      -0.539600
      3 C03          4.0930     0.0000     0.0000 c3         1 45H      -0.033800
      4 C04          8.6200   -20.7930   -12.7190 c3         1 45H      -0.033800
      5 C05          3.3120     0.0000     1.3170 c3         1 45H      -0.066400
      6 C06          8.7240   -21.7590   -13.9040 c3         1 45H      -0.066400
      7 C07          3.2780    -0.6840    -1.0650 ce         1 45H      -0.004200
      8 C08          7.8620   -19.5630   -13.1420 cf         1 45H      -0.004200
      9 C09          1.9680     0.6990     1.0970 c3         1 45H      -0.180400
     10 C10          9.4110   -21.0420   -15.0710 c3         1 45H      -0.180400
     11 C11          5.4150    -0.7480     0.1910 c3         1 45H      -0.080600
     12 C12          4.3800     1.4410    -0.4230 c3         1 45H      -0.080600
     13 C14         10.0240   -20.3950   -12.2610 c3         1 45H      -0.080600
     14 C15          1.9020    -0.6570    -1.0270 cf         1 45H      -0.215400
     15 C16          7.8970   -19.1240   -14.4470 ce         1 45H      -0.215400
     16 C17          1.2160    -0.0030    -0.0040 c          1 45H       0.575800
     17 C18          8.6310   -19.8020   -15.4200 c          1 45H       0.575800
     18 C19          3.9250    -1.3540    -2.1070 ce         1 45H      -0.153000
     19 C20          7.1110   -18.8570   -12.1980 cf         1 45H      -0.153000
     20 C21          1.1200    -1.3500    -2.1130 c3         1 45H      -0.042900
     21 C22          7.1280   -17.8870   -14.8310 c3         1 45H      -0.042900
     22 C23          3.6670    -2.6910    -2.3340 cf         1 45H      -0.098000
     23 C24          7.3690   -17.5200   -11.9710 ce         1 45H      -0.098000
     24 C25          4.3560    -3.3750    -3.3400 cf         1 45H      -0.095700
     25 C26          6.6800   -16.8360   -10.9650 ce         1 45H      -0.095700
     26 C27          5.3790    -2.6520    -4.1780 c3         1 45H      -0.057900
     27 C28          5.6570   -17.5590   -10.1270 c3         1 45H      -0.057900
     28 C29          4.0980    -4.7120    -3.5660 ce         1 45H      -0.118000
     29 C30          6.9380   -15.5000   -10.7380 cf         1 45H      -0.118000
     30 C31          4.7860    -5.3960    -4.5730 ce         1 45H      -0.140500
     31 C32          6.2500   -14.8150    -9.7320 cf         1 45H      -0.140500
     32 C33          4.5290    -6.7320    -4.7990 cf         1 45H      -0.115000
     33 C34          6.5090   -13.4780    -9.5050 ce         1 45H      -0.115000
     34 C35          5.2170    -7.4160    -5.8050 cf         1 45H      -0.084700
     35 C36          5.8200   -12.7940    -8.4990 ce         1 45H      -0.084700
     36 C37          4.9590    -8.7530    -6.0330 ce         1 45H      -0.126500
     37 C38          6.0780   -11.4580    -8.2720 cf         1 45H      -0.126500
     38 C39          6.2400    -6.6940    -6.6430 c3         1 45H      -0.058900
     39 C40          4.7960   -13.5170    -7.6610 c3         1 45H      -0.058900
     40 C41          5.6480    -9.4370    -7.0390 ce         1 45H      -0.132000
     41 C42          5.3900   -10.7740    -7.2660 cf         1 45H      -0.132000
     42 H052         3.8760     0.5320     2.0730 hc         1 45H       0.050950
     43 H051         3.1400    -1.0210     1.6360 hc         1 45H       0.050950
     44 H061         7.7310   -22.0700   -14.2060 hc         1 45H       0.050950
     45 H062         9.3090   -22.6230   -13.6160 hc         1 45H       0.050950
     46 H091         2.1400     1.7310     0.8140 hc         1 45H       0.071200
     47 H092         1.3870     0.6610     2.0110 hc         1 45H       0.071200
     48 H101         9.4440   -21.7010   -15.9300 hc         1 45H       0.071200
     49 H102        10.4180   -20.7650   -14.7820 hc         1 45H       0.071200
     50 H111         6.0150    -0.6560    -0.7060 hc         1 45H       0.039950
     51 H113         5.2120    -1.7950     0.3840 hc         1 45H       0.039950
     52 H112         5.9520    -0.3240     1.0300 hc         1 45H       0.039950
     53 H123         4.6000     2.0380     0.4530 hc         1 45H       0.039950
     54 H121         3.5130     1.8490    -0.9290 hc         1 45H       0.039950
     55 H122         5.2310     1.4580    -1.0940 hc         1 45H       0.039950
     56 H131         8.3400   -22.4370   -11.3640 hc         1 45H       0.039950
     57 H133         7.9380   -20.8550   -10.6820 hc         1 45H       0.039950
     58 H132         6.8430   -21.6230   -11.8400 hc         1 45H       0.039950
     59 H143         9.9820   -20.0330   -11.2410 hc         1 45H       0.039950
     60 H142        10.6780   -21.2570   -12.3110 hc         1 45H       0.039950
     61 H141        10.4070   -19.6140   -12.9060 hc         1 45H       0.039950
     62 H191         4.6610    -0.8350    -2.7090 ha         1 45H       0.144500
     63 H201         6.3740   -19.3750   -11.5960 ha         1 45H       0.144500
     64 H211         1.6410    -1.2450    -3.0560 hc         1 45H       0.049200
     65 H213         0.1370    -0.9020    -2.1920 hc         1 45H       0.049200
     66 H212         1.0190    -2.4010    -1.8710 hc         1 45H       0.049200
     67 H223         6.2000   -17.8510   -14.2730 hc         1 45H       0.049200
     68 H222         6.9110   -17.9120   -15.8920 hc         1 45H       0.049200
     69 H221         7.7200   -17.0090   -14.6040 hc         1 45H       0.049200
     70 H231         2.9630    -3.2210    -1.7040 ha         1 45H       0.138000
     71 H241         8.1530   -17.0180   -12.5250 ha         1 45H       0.138000
     72 H271         5.1990    -1.5850    -4.1270 hc         1 45H       0.045700
     73 H272         5.3030    -2.9830    -5.2070 hc         1 45H       0.045700
     74 H273         6.3720    -2.8690    -3.8020 hc         1 45H       0.045700
     75 H283         6.1040   -17.8540    -9.1860 hc         1 45H       0.045700
     76 H282         5.3140   -18.4390   -10.6560 hc         1 45H       0.045700
     77 H281         4.8170   -16.9020    -9.9370 hc         1 45H       0.045700
     78 H291         3.3630    -5.2310    -2.9640 ha         1 45H       0.131000
     79 H301         7.6740   -14.9810   -11.3400 ha         1 45H       0.131000
     80 H311         5.5220    -4.8760    -5.1760 ha         1 45H       0.136000
     81 H321         5.5140   -15.3340    -9.1300 ha         1 45H       0.136000
     82 H331         3.7940    -7.2520    -4.1960 ha         1 45H       0.131000
     83 H341         7.2450   -12.9590   -10.1070 ha         1 45H       0.131000
     84 H371         4.2230    -9.2730    -5.4310 ha         1 45H       0.130000
     85 H381         6.8140   -10.9380    -8.8740 ha         1 45H       0.130000
     86 H392         6.3890    -7.2300    -7.5730 hc         1 45H       0.045867
     87 H393         5.8900    -5.6920    -6.8570 hc         1 45H       0.045867
     88 H391         7.1780    -6.6420    -6.1030 hc         1 45H       0.045867
     89 H402         4.1940   -14.1550    -8.2970 hc         1 45H       0.045867
     90 H403         4.1580   -12.7940    -7.1670 hc         1 45H       0.045867
     91 H401         5.3000   -14.1210    -6.9160 hc         1 45H       0.045867
     92 H411         6.3840    -8.9170    -7.6400 ha         1 45H       0.133000
     93 H421         4.6540   -11.2930    -6.6640 ha         1 45H       0.133000
     94 C13          7.8810   -21.4770   -11.5670 c3         1 45H      -0.080600
@<TRIPOS>BOND
     1    10     6 1   
     2    10    17 1   
     3     2    17 2   
     4     6     4 1   
     5    17    15 1   
     6    94     4 1   
     7     4    13 1   
     8     4     8 1   
     9    15     8 2   
    10    15    21 1   
    11     8    19 1   
    12    19    23 2   
    13    23    25 1   
    14    25    29 2   
    15    25    27 1   
    16    29    31 1   
    17    31    33 2   
    18    33    35 1   
    19    37    35 2   
    20    37    41 1   
    21    35    39 1   
    22    38    34 1   
    23    40    41 2   
    24    40    36 1   
    25    34    36 2   
    26    34    32 1   
    27    32    30 2   
    28    30    28 1   
    29    26    24 1   
    30    28    24 2   
    31    24    22 1   
    32    22    18 2   
    33    20    14 1   
    34    18     7 1   
    35    14     7 2   
    36    14    16 1   
    37     7     3 1   
    38    11     3 1   
    39     1    16 2   
    40    16     9 1   
    41     3    12 1   
    42     3     5 1   
    43     9     5 1   
    44     5    42 1   
    45     5    43 1   
    46     6    44 1   
    47     6    45 1   
    48     9    46 1   
    49     9    47 1   
    50    10    48 1   
    51    10    49 1   
    52    11    50 1   
    53    11    51 1   
    54    11    52 1   
    55    12    53 1   
    56    12    54 1   
    57    12    55 1   
    58    94    56 1   
    59    94    57 1   
    60    94    58 1   
    61    13    59 1   
    62    13    60 1   
    63    13    61 1   
    64    18    62 1   
    65    19    63 1   
    66    20    64 1   
    67    20    65 1   
    68    20    66 1   
    69    21    67 1   
    70    21    68 1   
    71    21    69 1   
    72    22    70 1   
    73    23    71 1   
    74    26    72 1   
    75    26    73 1   
    76    26    74 1   
    77    27    75 1   
    78    27    76 1   
    79    27    77 1   
    80    28    78 1   
    81    29    79 1   
    82    30    80 1   
    83    31    81 1   
    84    32    82 1   
    85    33    83 1   
    86    36    84 1   
    87    37    85 1   
    88    38    86 1   
    89    38    87 1   
    90    38    88 1   
    91    39    89 1   
    92    39    90 1   
    93    39    91 1   
    94    40    92 1   
    95    41    93 1   
@<TRIPOS>SUBSTRUCTURE
     1 45H         1 TEMP              0 ****  ****    0 ROOT
