@<TRIPOS>MOLECULE
45I
   41    42     1     0     0
SMALL
bcc


@<TRIPOS>ATOM
      1 O18          0.0000     0.0000     0.0000 o          1 45I      -0.816300
      2 C17          1.2140     0.0000     0.0000 c          1 45I       0.933200
      3 O17          1.8880     0.0000     1.1660 o          1 45I      -0.816300
      4 C10          1.9530    -0.0060    -1.2790 ca         1 45I       0.103400
      5 C9           3.3430     0.1310    -1.2880 ca         1 45I      -0.096000
      6 C8           4.0270     0.1240    -2.4860 ca         1 45I      -0.004000
      7 C7           3.3380    -0.0180    -3.6780 ca         1 45I      -0.268500
      8 S1           4.2190    -0.0270    -5.2040 sy         1 45I       0.917200
      9 O6           5.4410     0.6580    -4.9650 o          1 45I      -0.512800
     10 N7           4.6200    -1.6000    -5.5300 nz         1 45I      -0.136500
     11 O5           3.2910     0.3670    -6.2050 o          1 45I      -0.512800
     12 C12          1.9610    -0.1560    -3.6770 ca         1 45I       0.085000
     13 C11          1.2660    -0.1560    -2.4850 ca         1 45I      -0.154500
     14 S13         -0.4870    -0.3390    -2.4860 sy         1 45I       1.045200
     15 O15         -0.8860    -0.3750    -3.8500 o          1 45I      -0.584800
     16 O14         -0.7820    -1.3770    -1.5610 o          1 45I      -0.584800
     17 N16         -1.1250     1.0500    -1.8490 n7         1 45I      -0.547100
     18 C19         -0.9550     2.3240    -2.5520 c3         1 45I       0.222800
     19 C20         -1.9380     3.3520    -1.9890 c3         1 45I       0.018900
     20 C21         -1.7630     4.6620    -2.7130 ca         1 45I      -0.086300
     21 C26         -2.4970     4.9270    -3.8530 ca         1 45I      -0.096500
     22 C25         -2.3370     6.1290    -4.5160 ca         1 45I      -0.102000
     23 C24         -1.4420     7.0670    -4.0390 ca         1 45I      -0.109000
     24 C23         -0.7070     6.8040    -2.8980 ca         1 45I      -0.102000
     25 C22         -0.8710     5.6040    -2.2310 ca         1 45I      -0.096500
     26 H9           3.8830     0.2420    -0.3560 ha         1 45I       0.158000
     27 H8           5.1050     0.2310    -2.4930 ha         1 45I       0.109000
     28 H12          1.4280    -0.2690    -4.6140 ha         1 45I       0.136000
     29 H7A          5.1240    -1.6430    -6.3940 hn         1 45I       0.308800
     30 H7B          5.1930    -1.9590    -4.7920 hn         1 45I       0.308800
     31 H16         -1.6670     1.0120    -1.0090 hn         1 45I       0.389800
     32 H191        -1.1460     2.1820    -3.6090 h1         1 45I       0.006200
     33 H192         0.0590     2.6800    -2.4130 h1         1 45I       0.006200
     34 H201        -1.7470     3.4940    -0.9320 hc         1 45I       0.027200
     35 H202        -2.9520     2.9960    -2.1280 hc         1 45I       0.027200
     36 H26         -3.1990     4.1910    -4.2270 ha         1 45I       0.108500
     37 H22         -0.2960     5.3980    -1.3370 ha         1 45I       0.108500
     38 H25         -2.9120     6.3350    -5.4100 ha         1 45I       0.100000
     39 H24         -1.3140     8.0080    -4.5610 ha         1 45I       0.099000
     40 H23         -0.0070     7.5410    -2.5230 ha         1 45I       0.100000
     41 H73          3.7880    -2.1550    -5.5730 hn         1 45I       0.308800
@<TRIPOS>BOND
     1     1     2 1   
     2     2     3 1   
     3     2     4 1   
     4     4     5 ar  
     5     4    13 ar  
     6     5     6 ar  
     7     5    26 1   
     8     6     7 ar  
     9     6    27 1   
    10     7     8 1   
    11     7    12 ar  
    12     8     9 2   
    13     8    10 1   
    14     8    11 2   
    15    10    29 1   
    16    10    30 1   
    17    10    41 1   
    18    12    13 ar  
    19    12    28 1   
    20    13    14 1   
    21    14    15 2   
    22    14    16 2   
    23    14    17 1   
    24    17    18 1   
    25    17    31 1   
    26    18    19 1   
    27    18    32 1   
    28    18    33 1   
    29    19    20 1   
    30    19    34 1   
    31    19    35 1   
    32    20    21 ar  
    33    20    25 ar  
    34    21    22 ar  
    35    21    36 1   
    36    22    23 ar  
    37    22    38 1   
    38    23    24 ar  
    39    23    39 1   
    40    24    25 ar  
    41    24    40 1   
    42    25    37 1   
@<TRIPOS>SUBSTRUCTURE
     1 45I         1 TEMP              0 ****  ****    0 ROOT
