@<TRIPOS>MOLECULE
molecule
   39    43     1     0     0
SMALL
bcc


@<TRIPOS>ATOM
      1 N1           0.0000     0.0000     0.0000 nc         1 45K      -0.561100
      2 N2           2.2820     0.0020     6.4190 nu         1 45K      -0.619400
      3 N3          -1.7720     0.0020     5.2110 ns         1 45K      -0.441100
      4 OAA         -0.4760     0.0020     7.0910 o          1 45K      -0.658500
      5 OAB          8.7420     0.2470    10.0970 o          1 45K      -0.600300
      6 OAC          7.9150    -1.9660     9.3910 o          1 45K      -0.600300
      7 CAD          1.8230     0.0020     5.1370 c2         1 45K       0.199000
      8 CAE          4.5610     0.0020     5.6140 ca         1 45K      -0.175000
      9 CAF          5.9110     0.0040     5.8780 ca         1 45K      -0.063000
     10 CAG         -2.0130     0.0020     1.4800 ca         1 45K      -0.049000
     11 CAH         -2.4610     0.0030     2.7630 ca         1 45K      -0.140000
     12 CAI          1.2780     0.0000     0.0000 cd         1 45K       0.403100
     13 CAJ          4.1310     0.0030     7.9690 ca         1 45K      -0.147000
     14 CAK          7.8610     0.0040     7.5860 c3         1 45K      -0.131300
     15 CAL          6.1240     0.0050     9.6250 c3         1 45K      -0.139300
     16 SAP          1.9030     0.0000     1.5880 ss         1 45K      -0.143100
     17 CAQ          3.6580     0.0020     6.6690 ca         1 45K       0.161600
     18 CAR          6.3910     0.0040     7.1890 ca         1 45K      -0.110300
     19 CAS          5.4990     0.0040     8.2360 ca         1 45K      -0.039300
     20 CAT         -0.6070     0.0020     5.8790 c          1 45K       0.729700
     21 CAU          0.4800     0.0010     4.8930 cc         1 45K      -0.295400
     22 CAV         -0.6300     0.0010     1.1900 ca         1 45K       0.097400
     23 CAW         -1.5670     0.0020     3.8350 ca         1 45K       0.052600
     24 CAX          0.2740     0.0010     2.2560 ca         1 45K      -0.013100
     25 CAY         -0.1970     0.0010     3.5760 ca         1 45K      -0.042800
     26 SAZ          7.8450    -0.5470     9.3310 s6         1 45K       1.078000
     27 H1          -2.6730     0.0020     5.6480 hn         1 45K       0.342500
     28 H2           2.5230     0.0010     4.3110 h4         1 45K       0.166000
     29 H3           4.2080    -0.1310     4.5990 ha         1 45K       0.142000
     30 H4           6.6140     0.0040     5.0540 ha         1 45K       0.141000
     31 H5          -2.7270     0.0010     0.6660 ha         1 45K       0.151000
     32 H6          -3.5270     0.0040     2.9560 ha         1 45K       0.139000
     33 H7           1.8880    -0.0000    -0.8950 h5         1 45K       0.070800
     34 H8           3.4270     0.0030     8.7930 ha         1 45K       0.146000
     35 H9           8.4050    -0.7110     6.9800 h1         1 45K       0.113700
     36 H10          8.2590     1.0090     7.5220 h1         1 45K       0.113700
     37 H11          6.1130     1.0030    10.0450 h1         1 45K       0.116200
     38 H12          5.6080    -0.6940    10.2720 h1         1 45K       0.116200
     39 H14          1.6350     0.0040     7.1820 hn         1 45K       0.489800
@<TRIPOS>BOND
     1     3    23 1
     2     3    20 1
     3    11    23 ar
     4    11    10 ar
     5     4    20 2
     6    23    25 ar
     7    20    21 1
     8    10    22 ar
     9    25    21 1
    10    25    24 ar
    11    21     7 2
    12    22    24 ar
    13    22     1 1
    14    24    16 1
    15     2     7 1
    16     2    17 1
    17     1    12 2
    18     8    17 ar
    19     8     9 ar
    20    17    13 ar
    21    16    12 1
    22     9    18 ar
    23    13    19 ar
    24    18    19 ar
    25    18    14 1
    26    19    15 1
    27     5    26 2
    28    14    26 1
    29    15    26 1
    30    26     6 2
    31     3    27 1
    32     7    28 1
    33     8    29 1
    34     9    30 1
    35    10    31 1
    36    11    32 1
    37    12    33 1
    38    13    34 1
    39    14    35 1
    40    14    36 1
    41    15    37 1
    42    15    38 1
    43     2    39 1
@<TRIPOS>SUBSTRUCTURE
     1 45K         1 TEMP              0 ****  ****    0 ROOT
