@<TRIPOS>MOLECULE
45L
   22    22     1     0     0
SMALL
bcc


@<TRIPOS>ATOM
      1 C4           0.0000     0.0000     0.0000 ca         1 45L      -0.086000
      2 C5           1.3800     0.0000     0.0000 ca         1 45L      -0.081000
      3 C6          -0.7780     0.0130     3.6980 c3         1 45L       0.059200
      4 N1           5.5980     0.0000     0.0620 nz         1 45L       0.287400
      5 C7           3.5520     0.0000     1.2180 c          1 45L       0.653700
      6 O            4.1550     0.0010     2.2740 o          1 45L      -0.588100
      7 N            4.2320     0.0000     0.0540 ns         1 45L      -0.392300
      8 C            2.0740     0.0000     1.2100 ca         1 45L      -0.196600
      9 C3          -0.6950     0.0060     1.1950 ca         1 45L      -0.031000
     10 C2          -0.0130     0.0120     2.4000 ca         1 45L      -0.082300
     11 C1           1.3660     0.0010     2.4140 ca         1 45L      -0.007000
     12 H1          -0.5400    -0.0020    -0.9390 ha         1 45L       0.121000
     13 H2           1.9230    -0.0050    -0.9370 ha         1 45L       0.084000
     14 H3          -1.8020     0.3140     3.5130 hc         1 45L       0.021367
     15 H4          -0.7660    -0.9830     4.1250 hc         1 45L       0.021367
     16 H5          -0.3170     0.7080     4.3890 hc         1 45L       0.021367
     17 H6           5.9290    -0.8160     0.5370 hn         1 45L       0.219467
     18 H7           5.9370    -0.0020    -0.8800 hn         1 45L       0.219467
     19 H8           3.7370     0.0310    -0.8150 hn         1 45L       0.277500
     20 H9          -1.7790     0.0060     1.1890 ha         1 45L       0.124000
     21 H10          1.8990     0.0010     3.3570 ha         1 45L       0.134000
     22 H13          5.9290     0.8190     0.5330 hn         1 45L       0.219467
@<TRIPOS>BOND
     1     1     2 ar  
     2     1     9 ar  
     3     1    12 1   
     4     2     8 ar  
     5     2    13 1   
     6     3    10 1   
     7     3    14 1   
     8     3    15 1   
     9     3    16 1   
    10     4     7 1   
    11     4    17 1   
    12     4    18 1   
    13     4    22 1   
    14     5     6 2   
    15     5     7 1   
    16     5     8 1   
    17     7    19 1   
    18     8    11 ar  
    19     9    10 ar  
    20     9    20 1   
    21    10    11 ar  
    22    11    21 1   
@<TRIPOS>SUBSTRUCTURE
     1 45L         1 TEMP              0 ****  ****    0 ROOT
