@<TRIPOS>MOLECULE
molecule
   22    22     1     0     0
SMALL
bcc


@<TRIPOS>ATOM
      1 C4           0.0000     0.0000     0.0000 ca         1 45L      -0.117000
      2 C5           1.3800     0.0000     0.0000 ca         1 45L      -0.109000
      3 C6          -0.7780     0.0130     3.6980 c3         1 45L      -0.054800
      4 N1           5.5980     0.0000     0.0620 nz         1 45L      -0.533600
      5 C7           3.5520     0.0000     1.2180 c          1 45L       0.685700
      6 O            4.1550     0.0010     2.2740 o          1 45L      -0.556100
      7 N            4.2320     0.0000     0.0540 ns         1 45L      -0.527300
      8 C            2.0740     0.0000     1.2100 ca         1 45L      -0.171600
      9 C3          -0.6950     0.0060     1.1950 ca         1 45L      -0.067000
     10 C2          -0.0130     0.0120     2.4000 ca         1 45L      -0.073300
     11 C1           1.3660     0.0010     2.4140 ca         1 45L      -0.045000
     12 H1          -0.5400    -0.0020    -0.9390 ha         1 45L       0.154000
     13 H2           1.9230    -0.0050    -0.9370 ha         1 45L       0.109000
     14 H3          -1.8020     0.3140     3.5130 hc         1 45L       0.060367
     15 H4          -0.7660    -0.9830     4.1250 hc         1 45L       0.060367
     16 H5          -0.3170     0.7080     4.3890 hc         1 45L       0.060367
     17 H6           5.9290    -0.8160     0.5370 hn         1 45L       0.469133
     18 H7           5.9370    -0.0020    -0.8800 hn         1 45L       0.469133
     19 H8           3.7370     0.0310    -0.8150 hn         1 45L       0.391500
     20 H9          -1.7790     0.0060     1.1890 ha         1 45L       0.158000
     21 H10          1.8990     0.0010     3.3570 ha         1 45L       0.166000
     22 H13          5.9290     0.8190     0.5330 hn         1 45L       0.469133
@<TRIPOS>BOND
     1     3    10 1
     2     4     7 1
     3     7     5 1
     4    10    11 ar
     5    10     9 ar
     6    11     8 ar
     7     9     1 ar
     8     8     5 1
     9     8     2 ar
    10     5     6 2
    11     1     2 ar
    12     1    12 1
    13     2    13 1
    14     3    14 1
    15     3    15 1
    16     3    16 1
    17     4    17 1
    18     4    18 1
    19     7    19 1
    20     9    20 1
    21    11    21 1
    22    22     4 1
@<TRIPOS>SUBSTRUCTURE
     1 45L         1 TEMP              0 ****  ****    0 ROOT
