@<TRIPOS>MOLECULE
45M
   28    29     1     0     0
SMALL
bcc


@<TRIPOS>ATOM
      1 C4           0.0000     0.0000     0.0000 c3         1 45M      -0.078700
      2 C5           5.9210    -0.0010    -2.0150 ca         1 45M      -0.149600
      3 C6           6.5260    -0.0070    -0.7570 ca         1 45M      -0.053000
      4 N1           2.2890     0.0000    -1.1300 nu         1 45M      -0.314200
      5 C7           7.9020    -0.0130    -0.6560 ca         1 45M      -0.093000
      6 C8           8.6820    -0.0130    -1.7990 ca         1 45M       0.054100
      7 N2           1.9740     0.0000     1.2010 n2         1 45M      -0.671900
      8 C9           8.0890    -0.0060    -3.0510 ca         1 45M      -0.093000
      9 C10          6.7140    -0.0010    -3.1640 ca         1 45M      -0.053000
     10 Br          10.5670    -0.0200    -1.6520 br         1 45M      -0.123100
     11 C            4.4480    -0.0010    -2.1310 c          1 45M       0.593700
     12 O            3.9250     0.0000    -3.2290 o          1 45M      -0.663100
     13 N            3.6850    -0.0000    -1.0200 ns         1 45M      -0.112300
     14 C1           1.5120     0.0000     0.0000 c2         1 45M       0.445200
     15 C3          -0.3710     0.4160     1.4440 c3         1 45M      -0.052400
     16 C2           0.9070    -0.0020     2.2080 c3         1 45M       0.179800
     17 H1          -0.3790     0.7240    -0.7110 hc         1 45M       0.028200
     18 H2           5.9160    -0.0070     0.1380 ha         1 45M       0.121500
     19 H3           1.8580    -0.0310    -2.0330 hn         1 45M       0.333800
     20 H4           8.3720    -0.0180     0.3200 ha         1 45M       0.120500
     21 H6           8.7050    -0.0060    -3.9410 ha         1 45M       0.120500
     22 H7           6.2510     0.0040    -4.1430 ha         1 45M       0.121500
     23 H8           4.1160     0.0330    -0.1170 hn         1 45M       0.222500
     24 H9          -1.2320    -0.1380     1.7980 hc         1 45M       0.025200
     25 H10          0.7860    -0.9950     2.6240 h1         1 45M       0.019200
     26 H11         -0.5300     1.4850     1.5110 hc         1 45M       0.025200
     27 H12          1.1280     0.7160     2.9890 h1         1 45M       0.019200
     28 H13         -0.3790    -0.9910    -0.2180 hc         1 45M       0.028200
@<TRIPOS>BOND
     1     1    14 1   
     2     1    15 1   
     3     1    17 1   
     4     1    28 1   
     5     2     3 ar  
     6     2     9 ar  
     7     2    11 1   
     8     3     5 ar  
     9     3    18 1   
    10     4    13 1   
    11     4    14 1   
    12     4    19 1   
    13     5     6 ar  
    14     5    20 1   
    15     6     8 ar  
    16     6    10 1   
    17     7    14 2   
    18     7    16 1   
    19     8     9 ar  
    20     8    21 1   
    21     9    22 1   
    22    11    12 2   
    23    11    13 1   
    24    13    23 1   
    25    15    16 1   
    26    15    24 1   
    27    15    26 1   
    28    16    25 1   
    29    16    27 1   
@<TRIPOS>SUBSTRUCTURE
     1 45M         1 TEMP              0 ****  ****    0 ROOT
