@<TRIPOS>MOLECULE
45N
   33    35     1     0     0
SMALL
bcc


@<TRIPOS>ATOM
      1 C4           0.0000     0.0000     0.0000 ca         1 45N      -0.064000
      2 C5           1.3820     0.0000     0.0000 ca         1 45N      -0.095300
      3 C6           2.1340     0.0020    -1.3070 c3         1 45N       0.204100
      4 C7           3.1090     1.4290    -3.0030 c3         1 45N       0.112500
      5 C8           3.8520     2.7710    -3.1550 c3         1 45N      -0.025900
      6 C9           3.7510     3.1640    -4.6400 c3         1 45N      -0.022400
      7 C10          2.9500     2.0460    -5.3380 c3         1 45N      -0.022400
      8 C11          2.1230     1.3990    -4.1960 c3         1 45N      -0.025900
      9 C12         -2.1430     0.4200     2.8460 c3         1 45N       0.431200
     10 O1          -0.8920     0.0080     3.4310 os         1 45N      -0.315900
     11 C2           0.0070     0.0080     2.4040 ca         1 45N       0.056100
     12 C1           1.3920    -0.0020     2.3950 ca         1 45N      -0.088000
     13 O           -2.0310     0.0040     1.4730 os         1 45N      -0.314900
     14 C3          -0.6930     0.0030     1.2000 ca         1 45N       0.054100
     15 C            2.0770     0.0000     1.1950 ca         1 45N      -0.098000
     16 N            2.3770     1.3880    -1.7300 n7         1 45N      -0.577200
     17 H1          -0.5410    -0.0270    -0.9380 ha         1 45N       0.118000
     18 H2           1.5480    -0.5090    -2.0610 h1         1 45N       0.011200
     19 H3           3.0810    -0.5080    -1.1790 h1         1 45N       0.011200
     20 H4           3.8070     0.6030    -3.0710 h1         1 45N       0.013700
     21 H5           4.8910     2.6530    -2.8740 hc         1 45N       0.020200
     22 H6           3.3790     3.5280    -2.5400 hc         1 45N       0.020200
     23 H7           3.2300     4.1080    -4.7380 hc         1 45N       0.013200
     24 H8           4.7420     3.2330    -5.0720 hc         1 45N       0.013200
     25 H9           3.6210     1.3170    -5.7760 hc         1 45N       0.013200
     26 H10          2.2920     2.4660    -6.0890 hc         1 45N       0.013200
     27 H11          1.8570     0.3790    -4.4480 hc         1 45N       0.020200
     28 H12          1.2420     1.9910    -3.9800 hc         1 45N       0.020200
     29 H13         -2.9620    -0.1030     3.3240 h2         1 45N       0.013700
     30 H14         -2.2350     1.4990     2.8970 h2         1 45N       0.013700
     31 H15          1.9390    -0.0020     3.3300 ha         1 45N       0.111000
     32 H16          3.1600    -0.0000     1.1900 ha         1 45N       0.107000
     33 H17          2.9050     1.8640    -1.0260 hn         1 45N       0.257800
@<TRIPOS>BOND
     1     1     2 ar  
     2     1    14 ar  
     3     1    17 1   
     4     2     3 1   
     5     2    15 ar  
     6     3    16 1   
     7     3    18 1   
     8     3    19 1   
     9     4     5 1   
    10     4     8 1   
    11     4    16 1   
    12     4    20 1   
    13     5     6 1   
    14     5    21 1   
    15     5    22 1   
    16     6     7 1   
    17     6    23 1   
    18     6    24 1   
    19     7     8 1   
    20     7    25 1   
    21     7    26 1   
    22     8    27 1   
    23     8    28 1   
    24     9    10 1   
    25     9    13 1   
    26     9    29 1   
    27     9    30 1   
    28    10    11 1   
    29    11    12 ar  
    30    11    14 ar  
    31    12    15 ar  
    32    12    31 1   
    33    13    14 1   
    34    15    32 1   
    35    16    33 1   
@<TRIPOS>SUBSTRUCTURE
     1 45N         1 TEMP              0 ****  ****    0 ROOT
