@<TRIPOS>MOLECULE
molecule
   43    44     1     0     0
SMALL
bcc


@<TRIPOS>ATOM
      1 N4           0.0000     0.0000     0.0000 nv         1 45O      -0.981500
      2 C10          1.3790     0.0000     0.0000 ca         1 45O       0.996900
      3 N2           2.0450     0.0000     1.1510 nb         1 45O      -0.910000
      4 C9           3.3740     0.0000     1.1460 ca         1 45O       0.996900
      5 N5           4.0680     0.0000     2.3370 nh         1 45O      -0.807300
      6 C12          3.3410     0.0010     3.6100 c3         1 45O       0.239600
      7 C11          5.5340     0.0000     2.3320 c3         1 45O       0.239600
      8 N1           4.0340    -0.0010    -0.0100 nb         1 45O      -0.888000
      9 N3           2.0460    -0.0060    -1.1520 nb         1 45O      -0.869000
     10 C8           3.3690    -0.0010    -1.1520 ca         1 45O       0.789300
     11 C7           4.1190    -0.0080    -2.4590 c3         1 45O       0.135500
     12 N            4.3580     1.3750    -2.8940 n3         1 45O      -0.722600
     13 C4           5.2630     2.0680    -1.9690 c3         1 45O       0.167300
     14 C3           5.3740     3.5420    -2.3680 c3         1 45O      -0.072700
     15 C5           6.3340     4.2580    -1.4180 c3         1 45O      -0.088600
     16 C2           5.9070     3.6370    -3.8010 c3         1 45O      -0.074400
     17 C1           4.9730     2.8660    -4.7370 c3         1 45O      -0.072700
     18 C6           5.5300     2.9060    -6.1620 c3         1 45O      -0.088600
     19 C            4.8730     1.4120    -4.2680 c3         1 45O       0.167300
     20 H1          -0.5000     0.0010     0.8670 hn         1 45O       0.451300
     21 H2          -0.5000    -0.0010    -0.8670 hn         1 45O       0.451300
     22 H3           2.6780     0.8570     3.6470 h1         1 45O       0.042200
     23 H4           4.0470     0.0550     4.4290 h1         1 45O       0.042200
     24 H5           2.7590    -0.9090     3.6940 h1         1 45O       0.042200
     25 H6           5.8990    -0.2600     3.3180 h1         1 45O       0.042200
     26 H7           5.8920    -0.7250     1.6110 h1         1 45O       0.042200
     27 H8           5.8940     0.9860     2.0620 h1         1 45O       0.042200
     28 H9           5.0680    -0.5140    -2.3280 h1         1 45O       0.057200
     29 H10          3.5340    -0.5260    -3.2090 h1         1 45O       0.057200
     30 H12          4.8710     1.9970    -0.9610 h1         1 45O       0.038950
     31 H13          6.2430     1.6090    -2.0130 h1         1 45O       0.038950
     32 H14          4.3950     4.0030    -2.3170 hc         1 45O       0.065200
     33 H15          6.4940     5.2720    -1.7640 hc         1 45O       0.034033
     34 H16          5.9070     4.2790    -0.4220 hc         1 45O       0.034033
     35 H17          7.2800     3.7310    -1.3940 hc         1 45O       0.034033
     36 H18          5.9440     4.6760    -4.1030 hc         1 45O       0.040700
     37 H19          6.8990     3.2060    -3.8460 hc         1 45O       0.040700
     38 H20          3.9890     3.3180    -4.7160 hc         1 45O       0.065200
     39 H21          4.8650     2.3660    -6.8250 hc         1 45O       0.034033
     40 H22          6.5100     2.4450    -6.1800 hc         1 45O       0.034033
     41 H23          5.6090     3.9360    -6.4900 hc         1 45O       0.034033
     42 H24          4.1990     0.8690    -4.9200 h1         1 45O       0.038950
     43 H25          5.8560     0.9570    -4.2970 h1         1 45O       0.038950
@<TRIPOS>BOND
     1     1     2 1   
     2     2     9 ar  
     3     2     3 ar  
     4     9    10 ar  
     5     3     4 ar  
     6     7     5 1   
     7    10    11 1   
     8    10     8 ar  
     9     4     5 1   
    10     4     8 ar  
    11    11    12 1   
    12     5     6 1   
    13    13    12 1   
    14    13    14 1   
    15    12    19 1   
    16    19    17 1   
    17    15    14 1   
    18    14    16 1   
    19    16    17 1   
    20    17    18 1   
    21     1    20 1   
    22     1    21 1   
    23     6    22 1   
    24     6    23 1   
    25     6    24 1   
    26     7    25 1   
    27     7    26 1   
    28     7    27 1   
    29    11    28 1   
    30    11    29 1   
    31    13    30 1   
    32    13    31 1   
    33    14    32 1   
    34    15    33 1   
    35    15    34 1   
    36    15    35 1   
    37    16    36 1   
    38    16    37 1   
    39    17    38 1   
    40    18    39 1   
    41    18    40 1   
    42    18    41 1   
    43    19    42 1   
    44    19    43 1   
@<TRIPOS>SUBSTRUCTURE
     1 45O         1 TEMP              0 ****  ****    0 ROOT
