@<TRIPOS>MOLECULE
molecule
   42    45     1     0     0
SMALL
bcc


@<TRIPOS>ATOM
      1 N1           0.0000     0.0000     0.0000 nv         1 45P      -0.983500
      2 C2           1.3840     0.0000     0.0000 ca         1 45P       0.988900
      3 N3           2.0210     0.0000     1.1700 nb         1 45P      -0.865000
      4 C4           3.3410     0.0010     1.2370 ca         1 45P       0.795600
      5 O5           3.9730     0.0020     2.4330 oh         1 45P      -0.588300
      6 C6           4.0780     0.0000     0.0300 ca         1 45P      -0.392600
      7 N7           5.3550     0.0010    -0.3100 nc         1 45P      -0.238400
      8 N8           5.4400    -0.0010    -1.5940 na         1 45P       0.471000
      9 N9           4.2770    -0.0010    -2.1470 nc         1 45P      -0.296400
     10 C10          3.3560    -0.0010    -1.2000 ca         1 45P       0.381300
     11 N11          2.0140    -0.0060    -1.1580 nb         1 45P      -0.801000
     12 C12          6.6480    -0.0010    -2.3040 ca         1 45P       0.002800
     13 C13          7.8570     0.0020    -1.6180 ca         1 45P      -0.090000
     14 C14          9.0510     0.0010    -2.3120 ca         1 45P      -0.129000
     15 C15          9.0510     0.0000    -3.6930 ca         1 45P      -0.098000
     16 C16          7.8430    -0.0020    -4.3910 ca         1 45P      -0.139600
     17 C17          6.6380    -0.0070    -3.6900 ca         1 45P      -0.046000
     18 C18          7.8410    -0.0020    -5.8690 c          1 45P       0.673700
     19 O19          6.7870    -0.0030    -6.4750 o          1 45P      -0.594100
     20 N20          9.0070    -0.0020    -6.5450 ns         1 45P      -0.583900
     21 C21          9.0050    -0.0030    -8.0090 c3         1 45P       0.164300
     22 C22         10.4240    -0.0020    -8.5140 ca         1 45P      -0.102300
     23 C23         11.0720     1.1940    -8.7520 ca         1 45P      -0.108000
     24 C24         12.3790     1.1960    -9.2100 ca         1 45P       0.032400
     25 Cl1         13.1940     2.7000    -9.5020 cl         1 45P      -0.090900
     26 C26         13.0310    -0.0020    -9.4410 ca         1 45P      -0.110000
     27 C27         12.3800    -1.1990    -9.2080 ca         1 45P       0.032400
     28 Cl2         13.1990    -2.7020    -9.4970 cl         1 45P      -0.090900
     29 C29         11.0770    -1.1990    -8.7440 ca         1 45P      -0.108000
     30 H30         -0.5000    -0.0020     0.8670 hn         1 45P       0.454800
     31 H31         -0.5000    -0.0000    -0.8670 hn         1 45P       0.454800
     32 H32          3.4680     0.4980     3.0560 ho         1 45P       0.447000
     33 H34          7.8620     0.0030    -0.5340 ha         1 45P       0.166000
     34 H33          9.9900     0.0030    -1.7720 ha         1 45P       0.146000
     35 H36          9.9900     0.0020    -4.2340 ha         1 45P       0.132000
     36 H35          5.6970    -0.0080    -4.2270 ha         1 45P       0.193000
     37 H37          9.8740     0.0000    -6.0460 hn         1 45P       0.318500
     38 H38          8.4940    -0.8880    -8.3690 h1         1 45P       0.066200
     39 H39          8.4930     0.8810    -8.3700 h1         1 45P       0.066200
     40 H42         10.5500     2.1320    -8.6010 ha         1 45P       0.154000
     41 H41         14.0530    -0.0020    -9.7990 ha         1 45P       0.160000
     42 H40         10.5680    -2.1370    -8.5620 ha         1 45P       0.154000
@<TRIPOS>BOND
     1     1     2 1
     2     1    30 1
     3     1    31 1
     4     2     3 ar
     5     2    11 ar
     6     3     4 ar
     7     4     5 1
     8     4     6 ar
     9     5    32 1
    10     6     7 2
    11     6    10 ar
    12     7     8 1
    13     8     9 1
    14     8    12 1
    15     9    10 2
    16    10    11 ar
    17    12    13 ar
    18    12    17 ar
    19    13    14 ar
    20    13    33 1
    21    14    15 ar
    22    14    34 1
    23    15    16 ar
    24    15    35 1
    25    16    17 ar
    26    16    18 1
    27    17    36 1
    28    18    19 2
    29    18    20 1
    30    20    21 1
    31    20    37 1
    32    21    22 1
    33    21    38 1
    34    21    39 1
    35    22    23 ar
    36    22    29 ar
    37    23    24 ar
    38    23    40 1
    39    24    25 1
    40    24    26 ar
    41    26    27 ar
    42    26    41 1
    43    27    28 1
    44    27    29 ar
    45    29    42 1
@<TRIPOS>SUBSTRUCTURE
     1 45P         1 TEMP              0 ****  ****    0 ROOT
