@<TRIPOS>MOLECULE
molecule
   58    61     1     0     0
SMALL
bcc


@<TRIPOS>ATOM
      1 C10          0.0000     0.0000     0.0000 cc         1 45Q       0.054300
      2 C14         -0.2770     0.0060    -2.3590 c          1 45Q       0.684700
      3 C15         -1.1470     0.0120    -3.5530 ca         1 45Q      -0.149600
      4 C17         -0.5850     0.0140    -4.8310 ca         1 45Q      -0.084500
      5 N01          7.1580    -0.0010     3.1010 nv         1 45Q      -0.990200
      6 C02          5.5470     0.0000     1.3060 ca         1 45Q      -0.148000
      7 C03          5.8310    -0.0000     2.6670 ca         1 45Q       0.167600
      8 C04          4.7960    -0.0000     3.5940 ca         1 45Q      -0.103300
      9 C05          3.4860     0.0000     3.1670 ca         1 45Q      -0.099000
     10 C06          3.1990    -0.0000     1.8020 ca         1 45Q      -0.120500
     11 C07          4.2370     0.0050     0.8740 ca         1 45Q      -0.107000
     12 C08          1.7880     0.0000     1.3400 cd         1 45Q       0.408800
     13 C09          1.3590     0.0000     0.0000 cd         1 45Q      -0.337300
     14 N11         -0.4130    -0.0020     1.2940 na         1 45Q      -0.071600
     15 N12          0.7220    -0.0010     2.1120 nc         1 45Q      -0.507800
     16 N13         -0.8220     0.0050    -1.1260 ns         1 45Q      -0.457100
     17 O16          0.9320     0.0020    -2.4880 o          1 45Q      -0.579100
     18 C18         -1.4050     0.0180    -5.9410 ca         1 45Q      -0.126000
     19 C19         -2.7790     0.0220    -5.7900 ca         1 45Q      -0.051300
     20 C20         -3.3430     0.0220    -4.5260 ca         1 45Q      -0.126000
     21 C21         -2.5350     0.0110    -3.4080 ca         1 45Q      -0.084500
     22 C22         -3.6680     0.0280    -7.0070 c3         1 45Q       0.203100
     23 N23         -3.9620    -1.3540    -7.4070 n3         1 45Q      -0.719600
     24 C24         -4.7730    -2.0360    -6.3890 c3         1 45Q       0.116800
     25 C25         -4.9890    -3.4940    -6.8030 c3         1 45Q       0.164300
     26 N26         -5.6510    -3.5340    -8.1140 n3         1 45Q      -0.720600
     27 C27         -4.8400    -2.8530    -9.1320 c3         1 45Q       0.164300
     28 C28         -4.6230    -1.3950    -8.7170 c3         1 45Q       0.116800
     29 C29         -6.9990    -2.9550    -8.0420 c3         1 45Q       0.143100
     30 H1           0.4920     0.0100    -4.9500 ha         1 45Q       0.140500
     31 H2           7.6400    -0.8670     3.2350 hn         1 45Q       0.425800
     32 H3           7.6400     0.8660     3.2370 hn         1 45Q       0.425800
     33 H4           6.3550     0.0040     0.5840 ha         1 45Q       0.135000
     34 H5           2.6790    -0.0020     3.8900 ha         1 45Q       0.146000
     35 H6           4.0170     0.0050    -0.1870 ha         1 45Q       0.140000
     36 H7           1.9980     0.0010    -0.8750 ha         1 45Q       0.199000
     37 H8          -1.3640    -0.0020     1.6070 hn         1 45Q       0.321700
     38 H9          -1.8170     0.0060    -1.0200 hn         1 45Q       0.322500
     39 H10         -0.9700     0.0180    -6.9340 ha         1 45Q       0.139500
     40 H11         -4.4210     0.0230    -4.4140 ha         1 45Q       0.139500
     41 H12         -2.9780     0.0110    -2.4190 ha         1 45Q       0.140500
     42 H13         -3.1650     0.5390    -7.8190 h1         1 45Q       0.042700
     43 H14         -4.5930     0.5420    -6.7760 h1         1 45Q       0.042700
     44 H16         -5.7330    -1.5410    -6.3020 h1         1 45Q       0.039450
     45 H17         -4.2570    -2.0050    -5.4370 h1         1 45Q       0.039450
     46 H18         -5.6140    -3.9880    -6.0690 h1         1 45Q       0.063700
     47 H19         -4.0310    -3.9960    -6.8670 h1         1 45Q       0.063700
     48 H21         -5.3560    -2.8830   -10.0840 h1         1 45Q       0.063700
     49 H22         -3.8810    -3.3490    -9.2200 h1         1 45Q       0.063700
     50 H23         -5.5810    -0.8930    -8.6530 h1         1 45Q       0.039450
     51 H24         -3.9980    -0.9010    -9.4510 h1         1 45Q       0.039450
     52 H25         -7.4740    -3.0240    -9.0130 h1         1 45Q       0.033033
     53 H26         -6.9300    -1.9140    -7.7470 h1         1 45Q       0.033033
     54 H27         -7.5870    -3.4980    -7.3120 h1         1 45Q       0.033033
     55 H28          5.6820     0.8830     5.3170 hc         1 45Q       0.040700
     56 H29          4.1820     0.0000     5.6330 hc         1 45Q       0.040700
     57 H30          5.6800    -0.8860     5.3170 hc         1 45Q       0.040700
     58 C30          5.1070    -0.0010     5.0690 c3         1 45Q      -0.034800
@<TRIPOS>BOND
     1    20    21 ar
     2    20    19 ar
     3    22    19 1
     4    22    23 1
     5    24    23 1
     6    24    25 1
     7    21     3 ar
     8    19    18 ar
     9    23    28 1
    10    25    26 1
    11    17     2 2
    12     3     2 1
    13     3     4 ar
    14    18     4 ar
    15     2    16 1
    16    28    27 1
    17    26    29 1
    18    26    27 1
    19    58     8 1
    20    16     1 1
    21     9     8 ar
    22     9    10 ar
    23    13     1 2
    24    13    12 1
    25     1    14 1
    26     8     7 ar
    27    12    10 1
    28    12    15 2
    29    10    11 ar
    30    14    15 1
    31     7     5 1
    32     7     6 ar
    33    11     6 ar
    34     4    30 1
    35     5    31 1
    36     5    32 1
    37     6    33 1
    38     9    34 1
    39    11    35 1
    40    13    36 1
    41    14    37 1
    42    16    38 1
    43    18    39 1
    44    20    40 1
    45    21    41 1
    46    22    42 1
    47    22    43 1
    48    24    44 1
    49    24    45 1
    50    25    46 1
    51    25    47 1
    52    27    48 1
    53    27    49 1
    54    28    50 1
    55    28    51 1
    56    29    52 1
    57    29    53 1
    58    29    54 1
    59    58    55 1
    60    58    56 1
    61    58    57 1
@<TRIPOS>SUBSTRUCTURE
     1 45Q         1 TEMP              0 ****  ****    0 ROOT
