@<TRIPOS>MOLECULE
molecule
   50    53     1     0     0
SMALL
bcc


@<TRIPOS>ATOM
      1 C1           0.0000     0.0000     0.0000 c3         1 45R       0.120700
      2 O2           1.4290     0.0000     0.0000 os         1 45R      -0.293900
      3 C3           2.0460     0.0000     1.2090 ca         1 45R       0.218100
      4 C4           1.2950    -0.0010     2.3710 ca         1 45R      -0.238000
      5 C5           1.9340    -0.0030     3.6090 ca         1 45R       0.104000
      6 C6           3.3280    -0.0020     3.6780 ca         1 45R      -0.182000
      7 C7           4.0750    -0.0010     2.5350 ca         1 45R      -0.057000
      8 C8           3.4470    -0.0050     1.2870 ca         1 45R      -0.218600
      9 C9           4.2540    -0.0110     0.0540 c          1 45R       0.688700
     10 O10          3.7060    -0.0100    -1.0320 o          1 45R      -0.585100
     11 N11          5.6000    -0.0160     0.1300 ns         1 45R      -0.484100
     12 C12          6.3660    -0.1320    -1.0340 ca         1 45R       0.102600
     13 C13          7.5930     0.5090    -1.1260 ca         1 45R      -0.151000
     14 C14          8.3500     0.3930    -2.2770 ca         1 45R      -0.081000
     15 C15          7.8780    -0.3630    -3.3340 ca         1 45R      -0.151300
     16 C16          8.7060    -0.4920    -4.5960 c3         1 45R      -0.040100
     17 C17          7.9900     0.2670    -5.7180 c3         1 45R       0.092800
     18 N18          6.9920    -0.5700    -6.3600 ny         1 45R      -0.720000
     19 C19          5.8170    -0.8680    -5.5620 c3         1 45R       0.093800
     20 C20          6.1590    -1.8230    -4.4140 c3         1 45R      -0.043100
     21 C21          6.6620    -0.9990    -3.2460 ca         1 45R      -0.100300
     22 C22          5.9000    -0.8940    -2.1000 ca         1 45R      -0.106000
     23 C23          1.1310    -0.0030     4.8560 cc         1 45R      -0.292300
     24 C24         -0.2750    -0.0040     4.9420 cc         1 45R       0.356200
     25 N25         -0.6040    -0.0050     6.2050 nd         1 45R      -0.494800
     26 N26          0.5670    -0.0040     6.9720 na         1 45R      -0.029600
     27 C27          1.6210    -0.0100     6.1310 cd         1 45R      -0.081300
     28 HN18         7.4270    -1.4360    -6.6110 hn         1 45R       0.442300
     29 HN1A         6.6920    -0.1100    -7.1970 hn         1 45R       0.442300
     30 HN26         0.6140    -0.0060     7.9710 hn         1 45R       0.339700
     31 H1          -0.3610     0.8840     0.5110 h1         1 45R       0.047033
     32 H1A         -0.3610     0.0000    -1.0210 h1         1 45R       0.047033
     33 H1B         -0.3610    -0.8850     0.5100 h1         1 45R       0.047033
     34 H4           0.2120    -0.0010     2.3180 ha         1 45R       0.149000
     35 H6           3.8200    -0.0010     4.6430 ha         1 45R       0.136000
     36 H7           5.1560    -0.0030     2.5960 ha         1 45R       0.123000
     37 HN11         6.0510     0.0780     1.0190 hn         1 45R       0.336500
     38 H13          7.9600     1.0990    -0.2940 ha         1 45R       0.151000
     39 H14          9.3080     0.8920    -2.3500 ha         1 45R       0.144000
     40 H16          8.8000    -1.5370    -4.8650 hc         1 45R       0.080200
     41 H16A         9.6870    -0.0620    -4.4330 hc         1 45R       0.080200
     42 H17          8.7190     0.5780    -6.4560 hx         1 45R       0.106700
     43 H17A         7.5040     1.1400    -5.3010 hx         1 45R       0.106700
     44 H19          5.4460     0.0580    -5.1390 hx         1 45R       0.111200
     45 H19A         5.0820    -1.3450    -6.1980 hx         1 45R       0.111200
     46 H20          6.9440    -2.4960    -4.7360 hc         1 45R       0.084200
     47 H20A         5.2610    -2.3500    -4.1140 hc         1 45R       0.084200
     48 H22          5.0100    -1.5000    -1.9840 ha         1 45R       0.173000
     49 H24         -0.9640    -0.0040     4.1050 h4         1 45R       0.052100
     50 H27          2.6660    -0.0110     6.4160 h4         1 45R       0.176000
@<TRIPOS>BOND
     1     1     2 1
     2     1    31 1
     3     1    32 1
     4     1    33 1
     5     2     3 1
     6     3     4 ar
     7     3     8 ar
     8     4     5 ar
     9     4    34 1
    10     5     6 ar
    11     5    23 1
    12     6     7 ar
    13     6    35 1
    14     7     8 ar
    15     7    36 1
    16     8     9 1
    17     9    10 2
    18     9    11 1
    19    11    12 1
    20    11    37 1
    21    12    13 ar
    22    12    22 ar
    23    13    14 ar
    24    13    38 1
    25    14    15 ar
    26    14    39 1
    27    15    16 1
    28    15    21 ar
    29    16    17 1
    30    16    40 1
    31    16    41 1
    32    17    18 1
    33    17    42 1
    34    17    43 1
    35    18    19 1
    36    18    28 1
    37    18    29 1
    38    19    20 1
    39    19    44 1
    40    19    45 1
    41    20    21 1
    42    20    46 1
    43    20    47 1
    44    21    22 ar
    45    22    48 1
    46    23    24 1
    47    23    27 2
    48    24    25 2
    49    24    49 1
    50    25    26 1
    51    26    27 1
    52    26    30 1
    53    27    50 1
@<TRIPOS>SUBSTRUCTURE
     1 45R         1 TEMP              0 ****  ****    0 ROOT
