@<TRIPOS>MOLECULE
molecule
   50    52     1     0     0
SMALL
bcc


@<TRIPOS>ATOM
      1 C10          0.0000     0.0000     0.0000 c          1 45S       0.737700
      2 C12          1.4660     0.0000     0.0000 cc         1 45S      -0.210900
      3 O11         -0.6090     0.1230     1.0460 o          1 45S      -0.577100
      4 C22          2.2810     0.0000     1.1120 cd         1 45S      -0.096000
      5 C23          3.6020     0.0010     0.6540 cd         1 45S      -0.215000
      6 C24          3.5720     0.0010    -0.7010 cc         1 45S      -0.086600
      7 N25          2.2810    -0.0050    -1.1110 na         1 45S      -0.163100
      8 C26          4.7780     0.0010    -1.6040 c3         1 45S      -0.027800
      9 N3          -0.6740    -0.1320    -1.1600 n          1 45S      -0.491800
     10 C4          -2.1320    -0.0320    -1.3200 c3         1 45S       0.053700
     11 C6          -2.8130    -1.0770    -0.4750 c          1 45S       0.643100
     12 O8          -2.1510    -1.8370     0.2010 o          1 45S      -0.555100
     13 C5          -2.4470    -0.2770    -2.8110 c3         1 45S      -0.093400
     14 C1          -1.2020    -1.0600    -3.3050 c3         1 45S      -0.095400
     15 C2          -0.0700    -0.3950    -2.4790 c3         1 45S       0.087000
     16 N7          -4.1580    -1.1680    -0.4680 ns         1 45S      -0.610900
     17 C9          -4.8210    -2.1830     0.3540 c3         1 45S       0.159300
     18 C13         -6.3140    -2.0720     0.1830 ca         1 45S      -0.085300
     19 C14         -6.9240    -2.6230    -0.9280 ca         1 45S      -0.193300
     20 C20         -6.0970    -3.3330    -1.9680 c3         1 45S       0.159100
     21 N21         -5.7930    -4.6940    -1.5060 nz         1 45S      -0.811600
     22 C15         -8.2950    -2.5220    -1.0850 ca         1 45S      -0.086000
     23 C16         -9.0540    -1.8700    -0.1320 ca         1 45S      -0.107000
     24 C17         -8.4430    -1.3190     0.9810 ca         1 45S       0.066400
     25 Cl          -9.3960    -0.5000     2.1780 cl         1 45S      -0.035400
     26 C18         -7.0720    -1.4250     1.1400 ca         1 45S      -0.096000
     27 H19          1.9590    -0.0000     2.1460 ha         1 45S       0.170000
     28 H20          4.4920     0.0030     1.2720 ha         1 45S       0.159000
     29 H21          1.9700    -0.0060    -2.0620 hn         1 45S       0.296700
     30 H22          5.6430     0.3460    -1.0510 hc         1 45S       0.051367
     31 H23          4.6000     0.6610    -2.4440 hc         1 45S       0.051367
     32 H24          4.9580    -1.0040    -1.9660 hc         1 45S       0.051367
     33 H5          -2.4660     0.9570    -1.0320 h1         1 45S       0.087700
     34 H6          -2.5410     0.6640    -3.3400 hc         1 45S       0.053700
     35 H7          -3.3430    -0.8760    -2.9190 hc         1 45S       0.053700
     36 H1          -1.0460    -0.9070    -4.3660 hc         1 45S       0.060200
     37 H2          -1.2880    -2.1130    -3.0650 hc         1 45S       0.060200
     38 H3           0.2390     0.5330    -2.9430 h1         1 45S       0.056700
     39 H4           0.7700    -1.0730    -2.3800 h1         1 45S       0.056700
     40 H13         -4.7060    -0.5100    -0.9870 hn         1 45S       0.321500
     41 H8          -4.5640    -2.0290     1.3950 h1         1 45S       0.051200
     42 H9          -4.4940    -3.1680     0.0440 h1         1 45S       0.051200
     43 H14         -6.6510    -3.3830    -2.8980 hx         1 45S       0.113700
     44 H15         -5.1730    -2.7910    -2.1270 hx         1 45S       0.113700
     45 H16         -6.4420    -5.3370    -1.9150 hn         1 45S       0.457133
     46 H17         -4.8620    -4.9390    -1.7800 hn         1 45S       0.457133
     47 H10         -8.7730    -2.9540    -1.9560 ha         1 45S       0.146000
     48 H11        -10.1270    -1.7920    -0.2560 ha         1 45S       0.173000
     49 H12         -6.5930    -0.9940     2.0110 ha         1 45S       0.178000
     50 H213        -5.8530    -4.7280    -0.5080 hn         1 45S       0.457133
@<TRIPOS>BOND
     1    14    15 1
     2    14    13 1
     3    15     9 1
     4     9     1 1
     5     9    10 1
     6    10    13 1
     7    10    11 1
     8    11    12 2
     9    11    16 1
    10    17    18 1
    11    17    16 1
    12     1     2 1
    13     1     3 2
    14     2     4 2
    15     2     7 1
    16    18    19 ar
    17    18    26 ar
    18    19    22 ar
    19    19    20 1
    20    22    23 ar
    21    23    24 ar
    22    24    25 1
    23    24    26 ar
    24    20    21 1
    25     4     5 1
    26     5     6 2
    27     6     8 1
    28     6     7 1
    29    14    36 1
    30    14    37 1
    31    15    38 1
    32    15    39 1
    33    10    33 1
    34    13    34 1
    35    13    35 1
    36    17    41 1
    37    17    42 1
    38    22    47 1
    39    23    48 1
    40    26    49 1
    41    16    40 1
    42    20    43 1
    43    20    44 1
    44    21    45 1
    45    21    46 1
    46     4    27 1
    47     5    28 1
    48     7    29 1
    49     8    30 1
    50     8    31 1
    51     8    32 1
    52    50    21 1
@<TRIPOS>SUBSTRUCTURE
     1 45S         1 TEMP              0 ****  ****    0 ROOT
