@<TRIPOS>MOLECULE
molecule
   46    47     1     0     0
SMALL
bcc


@<TRIPOS>ATOM
      1 OAE          0.0000     0.0000     0.0000 o          1 45T      -0.829167
      2 PBA          1.4800     0.0000     0.0000 p5         1 45T       1.080700
      3 OAF          2.0160     0.0000     1.5180 o          1 45T      -0.829167
      4 OAC          2.0180     1.3140    -0.7580 o          1 45T      -0.829167
      5 CAL          2.0880    -1.4890    -0.8600 c3         1 45T      -0.256600
      6 CAJ          1.4770    -2.7350    -0.2140 c3         1 45T       0.163400
      7 OAS          1.9530    -3.9010    -0.8880 os         1 45T      -0.414600
      8 CAN          1.4400    -5.1270    -0.3610 c3         1 45T       0.122400
      9 CAY          2.0130    -6.3020    -1.1540 c3         1 45T       0.126100
     10 OAT          3.4270    -6.3680    -0.9550 os         1 45T      -0.440600
     11 CAK          4.1830    -5.6110    -1.9030 c3         1 45T       0.153400
     12 CAM          5.6750    -5.7530    -1.5950 c3         1 45T      -0.244600
     13 PBB          6.6400    -4.7890    -2.8040 p5         1 45T       1.046700
     14 OAG          8.1980    -4.8300    -2.4030 o          1 45T      -0.781833
     15 OAH          6.4460    -5.4210    -4.2720 o          1 45T      -0.781833
     16 OAD          6.1680    -3.3860    -2.8050 o          1 45T      -0.781833
     17 CAO          1.3700    -7.6050    -0.6720 c3         1 45T       0.044300
     18 N9           1.8290    -8.7160    -1.5110 na         1 45T      -0.180900
     19 C4           2.9820    -9.4330    -1.3420 cc         1 45T       0.126800
     20 N3           3.9870    -9.3910    -0.4600 nd         1 45T      -0.594100
     21 C2           4.9970   -10.2280    -0.5410 cc         1 45T       0.243800
     22 N2           6.0060   -10.1460     0.3860 nz         1 45T      -0.662600
     23 N1           5.0720   -11.1750    -1.5180 ns         1 45T      -0.473400
     24 C6           4.0940   -11.2780    -2.4440 c          1 45T       0.667000
     25 O6           4.1510   -12.1230    -3.3220 o          1 45T      -0.675500
     26 C5           3.0010   -10.3830    -2.3690 cd         1 45T       0.161800
     27 N7           1.8760   -10.2030    -3.1040 nd         1 45T      -0.645000
     28 C8           1.1820    -9.2270    -2.5980 cc         1 45T       0.397400
     29 H3           3.1670    -1.5350    -0.7830 hc         1 45T       0.059200
     30 H4           1.8010    -1.4450    -1.9030 hc         1 45T       0.059200
     31 H5           1.7630    -2.7790     0.8300 h1         1 45T       0.017700
     32 H6           0.3970    -2.6890    -0.2910 h1         1 45T       0.017700
     33 H7           1.7250    -5.2200     0.6800 h1         1 45T       0.001200
     34 H8           0.3590    -5.1300    -0.4410 h1         1 45T       0.001200
     35 H9           1.8030    -6.1640    -2.2070 h1         1 45T       0.053700
     36 H10          3.8990    -4.5680    -1.8410 h1         1 45T       0.056200
     37 H11          3.9840    -5.9810    -2.9010 h1         1 45T       0.056200
     38 H12          5.9590    -6.7970    -1.6560 hc         1 45T       0.026200
     39 H13          5.8740    -5.3830    -0.5960 hc         1 45T       0.026200
     40 H16          0.2920    -7.5230    -0.7410 h1         1 45T       0.053700
     41 H17          1.6530    -7.7890     0.3570 h1         1 45T       0.053700
     42 H18          6.8710    -9.9530    -0.0780 hn         1 45T       0.416800
     43 H19          5.8040    -9.4120     1.0350 hn         1 45T       0.416800
     44 H20          5.8560   -11.7960    -1.5500 hn         1 45T       0.295500
     45 H21          0.2330    -8.8730    -2.9810 h5         1 45T       0.057100
     46 H23          6.0780   -11.0150     0.8780 hn         1 45T       0.416800
@<TRIPOS>BOND
     1    25    24 2
     2    23    24 1
     3    23    21 1
     4    24    26 1
     5    22    21 1
     6    21    20 2
     7    26    27 1
     8    26    19 2
     9    27    28 2
    10    20    19 1
    11    19    18 1
    12    28    18 1
    13    18    17 1
    14     8     7 1
    15     8     9 1
    16     7     6 1
    17    10     9 1
    18    10    11 1
    19     9    17 1
    20     6     5 1
    21     5     2 1
    22    12    11 1
    23    12    13 1
    24     1     2 1
    25    16    13 1
    26     4     2 1
    27     2     3 1
    28    14    13 1
    29    13    15 1
    30     5    29 1
    31     5    30 1
    32     6    31 1
    33     6    32 1
    34     8    33 1
    35     8    34 1
    36     9    35 1
    37    11    36 1
    38    11    37 1
    39    12    38 1
    40    12    39 1
    41    17    40 1
    42    17    41 1
    43    22    42 1
    44    22    43 1
    45    23    44 1
    46    28    45 1
    47    46    22 1
@<TRIPOS>SUBSTRUCTURE
     1 45T         1 TEMP              0 ****  ****    0 ROOT
