@<TRIPOS>MOLECULE
molecule
   37    38     1     0     0
SMALL
bcc


@<TRIPOS>ATOM
      1 C4           0.0000     0.0000     0.0000 c3         1 45V       0.180000
      2 C5           2.1440     0.0000    -1.1660 c          1 45V       0.660100
      3 C6           3.6510    -0.0010    -1.1620 c3         1 45V      -0.169100
      4 N1           1.4670     0.0000     0.0000 n          1 45V      -0.382000
      5 C7           2.1550     0.0000     1.2070 c2         1 45V      -0.014400
      6 C8           1.6270     0.6230     2.2670 ce         1 45V      -0.198200
      7 C9           0.3090     1.2740     2.1390 ca         1 45V      -0.028800
      8 C10         -0.1540     2.1500     3.1200 ca         1 45V      -0.122000
      9 C11         -1.3860     2.7540     2.9690 ca         1 45V      -0.122000
     10 C12         -2.1620     2.4850     1.8560 ca         1 45V      -0.133000
     11 C13         -1.7170     1.5980     0.8900 ca         1 45V      -0.112000
     12 C14         -0.4920     0.9860     1.0310 ca         1 45V      -0.107300
     13 O1           1.5400    -0.0000    -2.2180 o          1 45V      -0.542100
     14 C3          -0.5150    -1.3990     0.3450 c3         1 45V      -0.169400
     15 H1          -0.3600     0.2920    -0.9790 h1         1 45V       0.111700
     16 H2           4.0150    -0.0440    -2.1820 hc         1 45V       0.060700
     17 H3           4.0100    -0.8630    -0.6140 hc         1 45V       0.060700
     18 H4           4.0110     0.9040    -0.6880 hc         1 45V       0.060700
     19 H5           3.2370    -0.0270     1.1540 h4         1 45V       0.150000
     20 H6           2.1520     0.6320     3.2150 ha         1 45V       0.142000
     21 H7           0.4530     2.3620     3.9920 ha         1 45V       0.133000
     22 H8          -1.7420     3.4490     3.7200 ha         1 45V       0.130000
     23 H9          -3.1280     2.9620     1.7440 ha         1 45V       0.130000
     24 H10         -2.3290     1.3910     0.0200 ha         1 45V       0.134000
     25 H11         -0.0780    -1.7240     1.2820 hc         1 45V       0.070700
     26 H12         -1.5940    -1.3740     0.4390 hc         1 45V       0.070700
     27 C1          -0.1270    -2.3600    -0.7500 c          1 45V       0.650100
     28 N2          -0.4760    -3.6590    -0.6600 n          1 45V      -0.502800
     29 O2           0.4990    -1.9640    -1.7100 o          1 45V      -0.579100
     30 C2          -0.0990    -4.5930    -1.7240 c3         1 45V       0.101300
     31 C15         -1.2310    -4.1370     0.5000 c3         1 45V       0.101300
     32 H13         -0.5520    -5.5590    -1.5350 h1         1 45V       0.039533
     33 H14          0.9790    -4.6980    -1.7470 h1         1 45V       0.039533
     34 H15         -0.4450    -4.2130    -2.6780 h1         1 45V       0.039533
     35 H16         -0.6460    -3.9870     1.3990 h1         1 45V       0.039533
     36 H17         -1.4470    -5.1920     0.3820 h1         1 45V       0.039533
     37 H18         -2.1600    -3.5860     0.5790 h1         1 45V       0.039533
@<TRIPOS>BOND
     1    14     1 1
     2     3     2 1
     3    13     2 2
     4     2     4 1
     5     5     4 1
     6     5     6 2
     7     4     1 1
     8     1    12 1
     9     6     7 1
    10    12     7 ar
    11    12    11 ar
    12     7     8 ar
    13    11    10 ar
    14     8     9 ar
    15    10     9 ar
    16     1    15 1
    17     3    16 1
    18     3    17 1
    19     3    18 1
    20     5    19 1
    21     6    20 1
    22     8    21 1
    23     9    22 1
    24    10    23 1
    25    11    24 1
    26    14    25 1
    27    14    26 1
    28    14    27 1
    29    27    28 1
    30    27    29 2
    31    28    30 1
    32    28    31 1
    33    30    32 1
    34    30    33 1
    35    30    34 1
    36    31    35 1
    37    31    36 1
    38    31    37 1
@<TRIPOS>SUBSTRUCTURE
     1 45V         1 TEMP              0 ****  ****    0 ROOT
