@<TRIPOS>MOLECULE
45V
   37    38     1     0     0
SMALL
bcc


@<TRIPOS>ATOM
      1 C4           0.0000     0.0000     0.0000 c3         1 45V       0.091000
      2 C5           2.1440     0.0000    -1.1660 c          1 45V       0.566100
      3 C6           3.6510    -0.0010    -1.1620 c3         1 45V      -0.072100
      4 N1           1.4670     0.0000     0.0000 n          1 45V       0.006000
      5 C7           2.1550     0.0000     1.2070 c2         1 45V      -0.141400
      6 C8           1.6270     0.6230     2.2670 ce         1 45V      -0.158200
      7 C9           0.3090     1.2740     2.1390 ca         1 45V      -0.028800
      8 C10         -0.1540     2.1500     3.1200 ca         1 45V      -0.093000
      9 C11         -1.3860     2.7540     2.9690 ca         1 45V      -0.096000
     10 C12         -2.1620     2.4850     1.8560 ca         1 45V      -0.106000
     11 C13         -1.7170     1.5980     0.8900 ca         1 45V      -0.082000
     12 C14         -0.4920     0.9860     1.0310 ca         1 45V      -0.115300
     13 O1           1.5400    -0.0000    -2.2180 o          1 45V      -0.572100
     14 C3          -0.5150    -1.3990     0.3450 c3         1 45V      -0.121400
     15 H1          -0.3600     0.2920    -0.9790 h1         1 45V       0.084700
     16 H2           4.0150    -0.0440    -2.1820 hc         1 45V       0.024033
     17 H3           4.0100    -0.8630    -0.6140 hc         1 45V       0.024033
     18 H4           4.0110     0.9040    -0.6880 hc         1 45V       0.024033
     19 H5           3.2370    -0.0270     1.1540 h4         1 45V       0.129000
     20 H6           2.1520     0.6320     3.2150 ha         1 45V       0.117000
     21 H7           0.4530     2.3620     3.9920 ha         1 45V       0.107000
     22 H8          -1.7420     3.4490     3.7200 ha         1 45V       0.102000
     23 H9          -3.1280     2.9620     1.7440 ha         1 45V       0.103000
     24 H10         -2.3290     1.3910     0.0200 ha         1 45V       0.108000
     25 H11         -0.0780    -1.7240     1.2820 hc         1 45V       0.041700
     26 H12         -1.5940    -1.3740     0.4390 hc         1 45V       0.041700
     27 C1          -0.1270    -2.3600    -0.7500 c          1 45V       0.569100
     28 N2          -0.4760    -3.6590    -0.6600 n          1 45V      -0.170800
     29 O2           0.4990    -1.9640    -1.7100 o          1 45V      -0.616100
     30 C2          -0.0990    -4.5930    -1.7240 c3         1 45V       0.091300
     31 C15         -1.2310    -4.1370     0.5000 c3         1 45V       0.091300
     32 H13         -0.5520    -5.5590    -1.5350 h1         1 45V       0.008700
     33 H14          0.9790    -4.6980    -1.7470 h1         1 45V       0.008700
     34 H15         -0.4450    -4.2130    -2.6780 h1         1 45V       0.008700
     35 H16         -0.6460    -3.9870     1.3990 h1         1 45V       0.008700
     36 H17         -1.4470    -5.1920     0.3820 h1         1 45V       0.008700
     37 H18         -2.1600    -3.5860     0.5790 h1         1 45V       0.008700
@<TRIPOS>BOND
     1     1     4 1   
     2     1    12 1   
     3     1    14 1   
     4     1    15 1   
     5     2     3 1   
     6     2     4 1   
     7     2    13 2   
     8     3    16 1   
     9     3    17 1   
    10     3    18 1   
    11     4     5 1   
    12     5     6 2   
    13     5    19 1   
    14     6     7 1   
    15     6    20 1   
    16     7     8 ar  
    17     7    12 ar  
    18     8     9 ar  
    19     8    21 1   
    20     9    10 ar  
    21     9    22 1   
    22    10    11 ar  
    23    10    23 1   
    24    11    12 ar  
    25    11    24 1   
    26    14    25 1   
    27    14    26 1   
    28    14    27 1   
    29    27    28 1   
    30    27    29 2   
    31    28    30 1   
    32    28    31 1   
    33    30    32 1   
    34    30    33 1   
    35    30    34 1   
    36    31    35 1   
    37    31    36 1   
    38    31    37 1   
@<TRIPOS>SUBSTRUCTURE
     1 45V         1 TEMP              0 ****  ****    0 ROOT
