@<TRIPOS>MOLECULE
45X
   20    20     1     0     0
SMALL
bcc


@<TRIPOS>ATOM
      1 C1           0.0000     0.0000     0.0000 c3         1 45X       0.050900
      2 C6           2.2070     0.0000     1.1920 ca         1 45X       0.428200
      3 C5           4.2260     0.0000     0.0830 ca         1 45X       0.443200
      4 C4           3.5950     0.0010    -1.1480 ca         1 45X      -0.201300
      5 C3           2.2100     0.0010    -1.1960 ca         1 45X      -0.051000
      6 C2           1.5070     0.0000     0.0000 ca         1 45X      -0.273600
      7 N           -1.9800     1.4420     0.0010 nz         1 45X       0.086400
      8 C           -0.5110     1.4420     0.0010 c3         1 45X      -0.057200
      9 N1           3.5260    -0.0010     1.2000 nb         1 45X      -0.555000
     10 H1          -0.3610    -0.5120     0.8840 hc         1 45X       0.034200
     11 H2          -0.3610    -0.5100    -0.8850 hc         1 45X       0.034200
     12 H3           1.6660    -0.0010     2.1310 h4         1 45X      -0.020900
     13 H4           5.3080    -0.0000     0.1290 h4         1 45X      -0.002900
     14 H5           4.1760     0.0010    -2.0620 ha         1 45X       0.130000
     15 H6           1.6880     0.0010    -2.1460 ha         1 45X       0.109000
     16 H7          -2.3130     2.3850     0.0010 hn         1 45X       0.223133
     17 H8          -2.3130     0.9710    -0.8170 hn         1 45X       0.223133
     18 H10         -0.1500     1.9520     0.8860 hx         1 45X       0.088200
     19 H11         -0.1500     1.9540    -0.8830 hx         1 45X       0.088200
     20 HN3         -2.3130     0.9690     0.8170 hn         1 45X       0.223133
@<TRIPOS>BOND
     1     1     6 1   
     2     1     8 1   
     3     1    10 1   
     4     1    11 1   
     5     2     6 ar  
     6     2     9 ar  
     7     2    12 1   
     8     3     4 ar  
     9     3     9 ar  
    10     3    13 1   
    11     4     5 ar  
    12     4    14 1   
    13     5     6 ar  
    14     5    15 1   
    15     7     8 1   
    16     7    16 1   
    17     7    17 1   
    18     7    20 1   
    19     8    18 1   
    20     8    19 1   
@<TRIPOS>SUBSTRUCTURE
     1 45X         1 TEMP              0 ****  ****    0 ROOT
