@<TRIPOS>MOLECULE
45Y
   22    22     1     0     0
SMALL
bcc


@<TRIPOS>ATOM
      1 C4           0.0000     0.0000     0.0000 ca         1 45Y      -0.050500
      2 C5           1.3820     0.0000     0.0000 ca         1 45Y      -0.120000
      3 C6          -2.1990     0.0100     1.1950 c3         1 45Y       0.003900
      4 N1          -4.4920    -2.9380     1.1970 nz         1 45Y       0.284400
      5 C7          -2.7060    -1.4090     1.1970 c          1 45Y       0.603100
      6 O           -1.9210    -2.3340     1.1990 o          1 45Y      -0.552100
      7 N           -4.0320    -1.6510     1.1950 ns         1 45Y      -0.389300
      8 C3          -0.6920     0.0040     1.1960 ca         1 45Y      -0.142300
      9 C2          -0.0030     0.0040     2.3950 ca         1 45Y      -0.050500
     10 C1           1.3790    -0.0010     2.3980 ca         1 45Y      -0.120000
     11 C            2.0740     0.0000     1.2000 ca         1 45Y       0.142900
     12 F            3.4250    -0.0050     1.2020 f          1 45Y      -0.112900
     13 H1          -0.5410     0.0000    -0.9380 ha         1 45Y       0.104000
     14 H2           1.9250    -0.0010    -0.9380 ha         1 45Y       0.131000
     15 H3          -2.5570     0.5200     0.3080 hc         1 45Y       0.049700
     16 H4          -2.5590     0.5240     2.0780 hc         1 45Y       0.049700
     17 H5          -4.1610    -3.4090     2.0150 hn         1 45Y       0.221133
     18 H6          -4.1590    -3.4120     0.3810 hn         1 45Y       0.221133
     19 H7          -4.6790    -0.8880     1.1930 hn         1 45Y       0.270500
     20 H8          -0.5460     0.0050     3.3320 ha         1 45Y       0.104000
     21 H9           1.9190    -0.0010     3.3370 ha         1 45Y       0.131000
     22 H13         -5.4920    -2.9340     1.1800 hn         1 45Y       0.221133
@<TRIPOS>BOND
     1     1     2 ar  
     2     1     8 ar  
     3     1    13 1   
     4     2    11 ar  
     5     2    14 1   
     6     3     5 1   
     7     3     8 1   
     8     3    15 1   
     9     3    16 1   
    10     4     7 1   
    11     4    17 1   
    12     4    18 1   
    13     4    22 1   
    14     5     6 2   
    15     5     7 1   
    16     7    19 1   
    17     8     9 ar  
    18     9    10 ar  
    19     9    20 1   
    20    10    11 ar  
    21    10    21 1   
    22    11    12 1   
@<TRIPOS>SUBSTRUCTURE
     1 45Y         1 TEMP              0 ****  ****    0 ROOT
