@<TRIPOS>MOLECULE
molecule
   22    22     1     0     0
SMALL
bcc


@<TRIPOS>ATOM
      1 C4           0.0000     0.0000     0.0000 ca         1 45Y      -0.077000
      2 C5           1.3820     0.0000     0.0000 ca         1 45Y      -0.158500
      3 C6          -2.1990     0.0100     1.1950 c3         1 45Y      -0.074100
      4 N1          -4.4920    -2.9380     1.1970 nz         1 45Y      -0.536600
      5 C7          -2.7060    -1.4090     1.1970 c          1 45Y       0.650100
      6 O           -1.9210    -2.3340     1.1990 o          1 45Y      -0.526100
      7 N           -4.0320    -1.6510     1.1950 ns         1 45Y      -0.531300
      8 C3          -0.6920     0.0040     1.1960 ca         1 45Y      -0.133300
      9 C2          -0.0030     0.0040     2.3950 ca         1 45Y      -0.077000
     10 C1           1.3790    -0.0010     2.3980 ca         1 45Y      -0.158500
     11 C            2.0740     0.0000     1.2000 ca         1 45Y       0.170900
     12 F            3.4250    -0.0050     1.2020 f          1 45Y      -0.118900
     13 H1          -0.5410     0.0000    -0.9380 ha         1 45Y       0.135000
     14 H2           1.9250    -0.0010    -0.9380 ha         1 45Y       0.162000
     15 H3          -2.5570     0.5200     0.3080 hc         1 45Y       0.089700
     16 H4          -2.5590     0.5240     2.0780 hc         1 45Y       0.089700
     17 H5          -4.1610    -3.4090     2.0150 hn         1 45Y       0.469467
     18 H6          -4.1590    -3.4120     0.3810 hn         1 45Y       0.469467
     19 H7          -4.6790    -0.8880     1.1930 hn         1 45Y       0.388500
     20 H8          -0.5460     0.0050     3.3320 ha         1 45Y       0.135000
     21 H9           1.9190    -0.0010     3.3370 ha         1 45Y       0.162000
     22 H13         -5.4920    -2.9340     1.1800 hn         1 45Y       0.469467
@<TRIPOS>BOND
     1     6     5 2
     2     4     7 1
     3    12    11 1
     4     5     7 1
     5     5     3 1
     6    10    11 ar
     7    10     9 ar
     8    11     2 ar
     9     9     8 ar
    10     2     1 ar
    11     8     1 ar
    12     8     3 1
    13     1    13 1
    14     2    14 1
    15     3    15 1
    16     3    16 1
    17     4    17 1
    18     4    18 1
    19     7    19 1
    20     9    20 1
    21    10    21 1
    22    22     4 1
@<TRIPOS>SUBSTRUCTURE
     1 45Y         1 TEMP              0 ****  ****    0 ROOT
