@<TRIPOS>MOLECULE
molecule
   40    42     1     0     0
SMALL
bcc


@<TRIPOS>ATOM
      1 N1          -1.8150    -0.0230    -2.3120 n1         1 45Z      -0.357800
      2 C1          -0.7220     0.0050    -1.2370 cg         1 45Z       0.235800
      3 C2           0.0000     0.0000     0.0000 ca         1 45Z      -0.004000
      4 C3           1.3960     0.0000     0.0000 ca         1 45Z      -0.009000
      5 C4           2.0840     0.0000     1.1940 ca         1 45Z      -0.245200
      6 N2           3.5640     0.0000     1.1920 no         1 45Z       0.296200
      7 O1           4.1710    -0.0000     0.1370 o          1 45Z      -0.196000
      8 O2           4.1740     0.0010     2.2460 o          1 45Z      -0.196000
      9 C5           1.3960     0.0010     2.3960 ca         1 45Z      -0.012000
     10 C6           0.0150     0.0000     2.4110 ca         1 45Z      -0.198000
     11 C7          -0.6930     0.0000     1.2200 ca         1 45Z       0.204100
     12 O3          -2.0500     0.0050     1.2330 os         1 45Z      -0.215200
     13 C8          -2.6760     0.1090     2.4350 ca         1 45Z       0.087100
     14 C9          -3.0880    -1.0330     3.1030 ca         1 45Z      -0.114000
     15 C10         -3.7260    -0.9270     4.3260 ca         1 45Z      -0.176000
     16 C11         -3.9530     0.3180     4.8860 ca         1 45Z       0.152900
     17 F           -4.5760     0.4180     6.0800 f          1 45Z      -0.119900
     18 C12         -3.5420     1.4630     4.2230 ca         1 45Z      -0.181000
     19 C13         -2.8990     1.3620     3.0010 ca         1 45Z       0.115100
     20 O4          -2.4950     2.4840     2.3480 os         1 45Z      -0.225200
     21 C14         -3.3310     3.0200     1.4240 ca         1 45Z       0.196100
     22 C19         -2.9130     4.1060     0.6410 ca         1 45Z      -0.018000
     23 C20         -1.6010     4.6550     0.8120 cg         1 45Z       0.238800
     24 N4          -0.5570     5.0770     0.9630 n1         1 45Z      -0.330800
     25 C18         -3.7820     4.6490    -0.3080 ca         1 45Z      -0.011000
     26 C15         -4.6010     2.4930     1.2460 ca         1 45Z      -0.223000
     27 C16         -5.4490     3.0360     0.3000 ca         1 45Z      -0.001000
     28 C17         -5.0440     4.1160    -0.4680 ca         1 45Z      -0.206200
     29 N3          -5.9620     4.6880    -1.4780 no         1 45Z       0.296200
     30 O5          -7.0720     4.2090    -1.6320 o          1 45Z      -0.195000
     31 O6          -5.6090     5.6360    -2.1540 o          1 45Z      -0.195000
     32 H1           2.2520    -0.1190    -0.6530 ha         1 45Z       0.203000
     33 H2           2.1600     0.1380     3.1520 ha         1 45Z       0.183000
     34 H4          -3.4620    -2.0110     2.8260 ha         1 45Z       0.182000
     35 H5          -3.9840    -1.8930     4.7430 ha         1 45Z       0.165000
     36 H6          -3.5190     2.2870     4.9260 ha         1 45Z       0.179000
     37 H7          -3.8550     5.4570    -1.0250 ha         1 45Z       0.203000
     38 H8          -4.8780     2.0230     2.1810 ha         1 45Z       0.160000
     39 H9          -6.4580     2.7880     0.6030 ha         1 45Z       0.169000
     40 H3          -0.6040     0.1480     3.2880 ha         1 45Z       0.163000
@<TRIPOS>BOND
     1    31    29 1
     2    29    30 1
     3    29    28 1
     4    27    28 ar
     5    27    26 ar
     6    17    16 1
     7    28    25 ar
     8    26    21 ar
     9    16    15 ar
    10    16    18 ar
    11    15    14 ar
    12     7     6 1
    13    18    19 ar
    14    25    22 ar
    15     6     8 1
    16     6     5 1
    17    21    22 ar
    18    21    20 1
    19    14    13 ar
    20     5     9 ar
    21     5     4 ar
    22     9    10 ar
    23    19    13 ar
    24    19    20 1
    25    22    23 1
    26     4     3 ar
    27    13    12 1
    28    10    11 ar
    29     3    11 ar
    30     3     2 1
    31    11    12 1
    32     2     1 3
    33    23    24 3
    34     4    32 1
    35     9    33 1
    36    14    34 1
    37    15    35 1
    38    18    36 1
    39    25    37 1
    40    26    38 1
    41    27    39 1
    42    10    40 1
@<TRIPOS>SUBSTRUCTURE
     1 45Z         1 TEMP              0 ****  ****    0 ROOT
