@<TRIPOS>MOLECULE
molecule
   37    40     1     0     0
SMALL
bcc


@<TRIPOS>ATOM
      1 C1           0.0000     0.0000     0.0000 c3         1 460      -0.144400
      2 C2           1.5060     0.0000     0.0000 ca         1 460       0.418600
      3 C3           2.1880     0.0000     1.2050 ca         1 460      -0.242300
      4 C4           3.5750     0.0000     1.2010 ca         1 460      -0.100000
      5 C5           4.2330     0.0010    -0.0170 ca         1 460      -0.241300
      6 C6           3.4820     0.0030    -1.1930 ca         1 460       0.481100
      7 N7           2.1550    -0.0040    -1.1440 nb         1 460      -0.610000
      8 C8           4.1700     0.0040    -2.5000 ce         1 460       0.107200
      9 N9           5.3030     0.7340    -2.7850 nu         1 460      -0.596800
     10 N10          5.7140     0.5340    -4.0710 n7         1 460      -0.490000
     11 C12          4.7550    -0.4060    -4.6830 c3         1 460       0.195000
     12 C13          3.7660    -0.7090    -3.5780 cf         1 460      -0.347000
     13 C14          2.6010    -1.5970    -3.6590 ca         1 460       0.553100
     14 C15          2.3250    -2.2660    -4.8680 ca         1 460      -0.242300
     15 C16          1.2480    -3.0920    -4.9550 ca         1 460      -0.127300
     16 C17          0.4310    -3.2540    -3.8150 ca         1 460       0.284300
     17 N18         -0.6380    -4.0520    -3.8430 nb         1 460      -0.673000
     18 C19         -1.4030    -4.2080    -2.7900 ca         1 460       0.417200
     19 C20         -1.1370    -3.5500    -1.5910 ca         1 460      -0.252300
     20 C21         -0.0570    -2.7200    -1.4940 ca         1 460      -0.143300
     21 C22          0.7610    -2.5540    -2.6280 ca         1 460       0.315300
     22 N23          1.8320    -1.7590    -2.5920 nb         1 460      -0.663000
     23 H11         -0.3610    -0.8650     0.5430 hc         1 460       0.053367
     24 H12         -0.3610     0.9030     0.4770 hc         1 460       0.053367
     25 H13         -0.3610    -0.0380    -1.0210 hc         1 460       0.053367
     26 H3           1.6430    -0.0010     2.1410 ha         1 460       0.137000
     27 H4           4.1310    -0.0000     2.1310 ha         1 460       0.138000
     28 H5           5.3150     0.0040    -0.0560 ha         1 460       0.137000
     29 HN9          5.7680     1.3310    -2.1310 hn         1 460       0.477800
     30 H10          5.6920     1.4030    -4.5670 hn         1 460       0.337800
     31 H121         4.2530     0.0600    -5.5220 h1         1 460       0.056200
     32 H122         5.2620    -1.3120    -4.9930 h1         1 460       0.056200
     33 H15          3.0010    -2.1680    -5.7090 ha         1 460       0.138000
     34 H16          1.0220    -3.6140    -5.8770 ha         1 460       0.152000
     35 H19         -2.2630    -4.8650    -2.8530 h4         1 460       0.021100
     36 H20         -1.7860    -3.6980    -0.7360 ha         1 460       0.135000
     37 H21          0.1630    -2.2010    -0.5680 ha         1 460       0.155000
@<TRIPOS>BOND
     1     1     2 1
     2     1    23 1
     3     1    24 1
     4     1    25 1
     5     2     3 ar
     6     2     7 ar
     7     3     4 ar
     8     3    26 1
     9     4     5 ar
    10     4    27 1
    11     5     6 ar
    12     5    28 1
    13     6     7 ar
    14     6     8 1
    15     8     9 1
    16     8    12 2
    17     9    10 1
    18     9    29 1
    19    10    11 1
    20    10    30 1
    21    11    12 1
    22    11    31 1
    23    11    32 1
    24    12    13 1
    25    13    14 ar
    26    13    22 ar
    27    14    15 ar
    28    14    33 1
    29    15    16 ar
    30    15    34 1
    31    16    17 ar
    32    16    21 ar
    33    17    18 ar
    34    18    19 ar
    35    18    35 1
    36    19    20 ar
    37    19    36 1
    38    20    21 ar
    39    20    37 1
    40    21    22 ar
@<TRIPOS>SUBSTRUCTURE
     1 460         1 TEMP              0 ****  ****    0 ROOT
