@<TRIPOS>MOLECULE
461
   55    56     1     0     0
SMALL
bcc


@<TRIPOS>ATOM
      1 CL1         2.8920    3.6650    3.1650 cl        1 461      0.085600
      2 C1          4.1560    3.0000    2.3260 cc        1 461      0.042300
      3 C2          5.4340    2.7770    2.8930 cd        1 461     -0.177000
      4 C3          6.3120    2.2110    1.9730 cd        1 461     -0.009000
      5 S2          4.0860    2.5230    0.7480 ss        1 461      0.227200
      6 C4          5.6960    2.0020    0.7020 cc        1 461     -0.258900
      7 C5          6.3590    1.4710   -0.3920 ce        1 461      0.296800
      8 C6          5.8000    1.2670   -1.6510 c2        1 461     -0.865300
      9 S1          6.4680    0.7940   -2.9200 s4        1 461      1.703100
     10 O2          5.7780    0.8930   -4.0900 o         1 461     -0.455900
     11 O1          7.8020    0.5210   -2.8880 o         1 461     -0.455900
     12 N1          5.9430   -1.5640   -2.7440 n3        1 461     -0.983800
     13 C12         5.4680   -2.1000   -4.0100 c3        1 461      0.063500
     14 C13         6.5520   -2.4580   -5.0430 c3        1 461     -0.103400
     15 C14         6.0510   -3.7480   -5.7200 c3        1 461      0.081000
     16 C50         4.6440   -3.4090   -3.8600 c         1 461      0.680500
     17 O3          3.8300   -3.5840   -2.9460 o         1 461     -0.593500
     18 N2          4.9850   -4.3000   -4.8840 n         1 461     -0.370000
     19 C15         4.3610   -5.5220   -5.1560 ca        1 461      0.093600
     20 C21         4.5540   -6.2200   -6.3930 ca        1 461      0.094900
     21 F1          5.3740   -5.7430   -7.3590 f         1 461     -0.121900
     22 C22         3.4980   -6.1280   -4.2100 ca        1 461     -0.140000
     23 C26         2.8530   -7.3290   -4.4760 ca        1 461     -0.082000
     24 C27         3.0340   -7.9860   -5.6960 ca        1 461     -0.176300
     25 C24         3.8890   -7.4300   -6.6460 ca        1 461     -0.128000
     26 C28         2.2590   -9.2360   -5.9980 c3        1 461      0.199800
     27 C7          1.4160   -9.0500   -7.2540 c3        1 461     -0.127100
     28 N3          3.2040  -10.4290   -6.1090 n4        1 461     -0.685400
     29 C11         3.8210  -10.7310   -4.7910 c3        1 461      0.081600
     30 C10         2.5190  -11.6310   -6.6460 c3        1 461      0.081600
     31 H2          5.6910    3.0270    3.9300 ha        1 461      0.207000
     32 H3          7.3570    1.9560    2.1890 ha        1 461      0.188000
     33 H51C        7.4310    1.2010   -0.2450 ha        1 461      0.164000
     34 H61C        4.7180    1.5440   -1.7060 h4        1 461      0.229000
     35 H1          6.7900   -2.0290   -2.4570 hn        1 461      0.403300
     36 H12         4.7660   -1.3280   -4.4550 h1        1 461      0.128700
     37 H131        7.5520   -2.6330   -4.5720 hc        1 461      0.088700
     38 H132        6.6630   -1.6410   -5.7990 hc        1 461      0.088700
     39 H141        5.6510   -3.5150   -6.7460 h1        1 461      0.084700
     40 H142        6.8810   -4.5000   -5.8190 h1        1 461      0.084700
     41 H22         3.3100   -5.6420   -3.2350 ha        1 461      0.193000
     42 H24         4.0430   -7.9080   -7.6280 ha        1 461      0.155000
     43 H26         2.1800   -7.7500   -3.7100 ha        1 461      0.155000
     44 H28         1.5680   -9.4760   -5.1310 hx        1 461      0.107700
     45 H71C        0.8410   -8.0940   -7.1440 hc        1 461      0.080033
     46 H72C        2.0460   -8.9700   -8.1730 hc        1 461      0.080033
     47 H73C        0.6820   -9.8820   -7.3780 hc        1 461      0.080033
     48 H111        4.6270  -11.5020   -4.9260 hx        1 461      0.105867
     49 H112        4.2630   -9.7910   -4.3630 hx        1 461      0.105867
     50 H113        3.0380  -11.1290   -4.0920 hx        1 461      0.105867
     51 H101        1.5940  -11.8380   -6.0450 hx        1 461      0.105867
     52 H102        2.2400  -11.4590   -7.7200 hx        1 461      0.105867
     53 H103        3.2130  -12.5130   -6.5810 hx        1 461      0.105867
     54 H121        5.2370   -1.7130   -2.0370 hn        1 461      0.403300
     55 H31         3.9540  -10.1620   -6.7620 hn        1 461      0.446800
@<TRIPOS>BOND
     1    1    2 1   
     2    2    3 2   
     3    2    5 1   
     4    3    4 1   
     5    3   31 1   
     6    4    6 2   
     7    4   32 1   
     8    5    6 1   
     9    6    7 1   
    10    7    8 2   
    11    7   33 1   
    12    8    9 1   
    13    8   34 1   
    14    9   10 1   
    15    9   11 1   
    16   12   13 1   
    17   12   35 1   
    18   12   54 1   
    19   13   14 1   
    20   13   16 1   
    21   13   36 1   
    22   14   15 1   
    23   14   37 1   
    24   14   38 1   
    25   15   18 1   
    26   15   39 1   
    27   15   40 1   
    28   16   17 2   
    29   16   18 1   
    30   18   19 1   
    31   19   20 ar  
    32   19   22 ar  
    33   20   21 1   
    34   20   25 ar  
    35   22   23 ar  
    36   22   41 1   
    37   23   24 ar  
    38   23   43 1   
    39   24   25 ar  
    40   24   26 1   
    41   25   42 1   
    42   26   27 1   
    43   26   28 1   
    44   26   44 1   
    45   27   45 1   
    46   27   46 1   
    47   27   47 1   
    48   28   29 1   
    49   28   30 1   
    50   28   55 1   
    51   29   48 1   
    52   29   49 1   
    53   29   50 1   
    54   30   51 1   
    55   30   52 1   
    56   30   53 1   
@<TRIPOS>SUBSTRUCTURE
     1 461         1 TEMP              0 ****  ****    0 ROOT
