@<TRIPOS>MOLECULE
molecule
   53    55     1     0     0
SMALL
bcc


@<TRIPOS>ATOM
      1 Cl1          0.0000     0.0000     0.0000 cl         1 461      -0.051400
      2 C1           1.7360     0.0000     0.0000 cc         1 461       0.067300
      3 C2           2.5070     0.0000     1.0940 cd         1 461      -0.161000
      4 C3           3.8640     0.0000     0.8530 cd         1 461      -0.120000
      5 S2           2.7470    -0.0090    -1.4390 ss         1 461      -0.035800
      6 C4           4.2040    -0.0010    -0.4540 cc         1 461      -0.049900
      7 C5           5.5800    -0.0010    -0.9730 ce         1 461       0.085800
      8 C6           5.7970    -0.0020    -2.2850 cf         1 461      -0.401100
      9 S1           7.4450    -0.0020    -2.9070 sy         1 461       1.410800
     10 O2           7.5020     1.0190    -3.8940 o          1 461      -0.636800
     11 O1           8.3020    -0.0360    -1.7740 o          1 461      -0.636800
     12 N1           7.6680    -1.4360    -3.7050 n7         1 461      -0.897100
     13 C12          6.8960    -1.7290    -4.9140 c3         1 461       0.159500
     14 C13          7.7500    -2.5370    -5.9190 c3         1 461      -0.102400
     15 C14          7.3600    -3.9900    -5.5680 c3         1 461       0.099000
     16 C50          5.7350    -2.6450    -4.5930 c          1 461       0.690500
     17 O3           4.7000    -2.2960    -4.0690 o          1 461      -0.607500
     18 N2           6.0200    -3.9030    -4.9750 n          1 461      -0.403000
     19 C15          5.1500    -4.9900    -4.8250 ca         1 461       0.015600
     20 C21          4.2510    -5.3080    -5.8370 ca         1 461       0.137900
     21 F1           4.2140    -4.5680    -6.9660 f          1 461      -0.132900
     22 C22          5.1890    -5.7560    -3.6690 ca         1 461      -0.096000
     23 C26          4.3290    -6.8290    -3.5230 ca         1 461      -0.140000
     24 C27          3.4320    -7.1400    -4.5280 ca         1 461      -0.051300
     25 C24          3.3940    -6.3820    -5.6840 ca         1 461      -0.143000
     26 C28          2.4970    -8.3100    -4.3650 c3         1 461       0.214800
     27 C7           1.1170    -7.8050    -3.9370 c3         1 461      -0.087100
     28 N3           2.3820    -9.0260    -5.6420 n3         1 461      -0.732600
     29 C11          3.7020    -9.4460    -6.1320 c3         1 461       0.149100
     30 C10          1.4760   -10.1760    -5.5220 c3         1 461       0.149100
     31 H2           2.0940     0.0010     2.0950 ha         1 461       0.159000
     32 H3           4.5990     0.0020     1.6490 ha         1 461       0.155000
     33 H51C         6.4180     0.0010    -0.2860 ha         1 461       0.160000
     34 H61C         4.9590    -0.0040    -2.9720 h4         1 461       0.187000
     35 H1           8.3530    -2.0890    -3.3780 hn         1 461       0.456800
     36 H12          6.5390    -0.8150    -5.3730 h1         1 461       0.108700
     37 H131         7.4710    -2.2990    -6.9390 hc         1 461       0.073200
     38 H132         8.8060    -2.3700    -5.7490 hc         1 461       0.073200
     39 H141         8.0600    -4.4020    -4.8510 h1         1 461       0.052700
     40 H142         7.3320    -4.5970    -6.4650 h1         1 461       0.052700
     41 H22          5.8910    -5.5140    -2.8800 ha         1 461       0.144000
     42 H24          2.6910    -6.6300    -6.4710 ha         1 461       0.170000
     43 H26          4.3570    -7.4260    -2.6200 ha         1 461       0.138000
     44 H28          2.8860    -8.9810    -3.6090 h1         1 461       0.031700
     45 H71C         0.5690    -7.4690    -4.8090 hc         1 461       0.045700
     46 H72C         0.5720    -8.6080    -3.4560 hc         1 461       0.045700
     47 H73C         1.2330    -6.9810    -3.2430 hc         1 461       0.045700
     48 H111         4.1510    -8.6370    -6.6960 h1         1 461       0.034367
     49 H112         4.3370    -9.6950    -5.2900 h1         1 461       0.034367
     50 H113         3.5910   -10.3140    -6.7700 h1         1 461       0.034367
     51 H101         1.7720   -10.7820    -4.6740 h1         1 461       0.034367
     52 H102         1.5260   -10.7710    -6.4260 h1         1 461       0.034367
     53 H103         0.4620    -9.8240    -5.3770 h1         1 461       0.034367
@<TRIPOS>BOND
     1     1     2 1   
     2     2     3 2   
     3     2     5 1   
     4     3     4 1   
     5     4     6 2   
     6     5     6 1   
     7     6     7 1   
     8     7     8 2   
     9     8     9 1   
    10     9    10 2   
    11     9    11 2   
    12     9    12 1   
    13    12    13 1   
    14    13    14 1   
    15    13    16 1   
    16    14    15 1   
    17    15    18 1   
    18    16    17 2   
    19    16    18 1   
    20    18    19 1   
    21    19    20 ar  
    22    19    22 ar  
    23    20    21 1   
    24    20    25 ar  
    25    22    23 ar  
    26    23    24 ar  
    27    24    25 ar  
    28    24    26 1   
    29    26    27 1   
    30    26    28 1   
    31    28    29 1   
    32    28    30 1   
    33     3    31 1   
    34     4    32 1   
    35     7    33 1   
    36     8    34 1   
    37    12    35 1   
    38    13    36 1   
    39    14    37 1   
    40    14    38 1   
    41    15    39 1   
    42    15    40 1   
    43    22    41 1   
    44    25    42 1   
    45    23    43 1   
    46    26    44 1   
    47    27    45 1   
    48    27    46 1   
    49    27    47 1   
    50    29    48 1   
    51    29    49 1   
    52    29    50 1   
    53    30    51 1   
    54    30    52 1   
    55    30    53 1   
@<TRIPOS>SUBSTRUCTURE
     1 461         1 TEMP              0 ****  ****    0 ROOT
