@<TRIPOS>MOLECULE
462
   52    54     1     0     0
SMALL
bcc


@<TRIPOS>ATOM
      1 C1           0.0000     0.0000     0.0000 c3         1 462       0.012900
      2 C2           1.5290     0.0000     0.0000 c3         1 462      -0.034400
      3 C3           2.0390     0.0000     1.4420 c3         1 462       0.203400
      4 O1           3.4690    -0.0010     1.4430 os         1 462      -0.295900
      5 C4           4.0860    -0.0000     2.6530 ca         1 462       0.170100
      6 C5           5.4720    -0.0000     2.7250 ca         1 462      -0.176000
      7 C6           6.1010    -0.0010     3.9530 ca         1 462      -0.060000
      8 C7           5.3430     0.0010     5.1220 ca         1 462      -0.071000
      9 C8           3.9510     0.0000     5.0470 ca         1 462      -0.060000
     10 C9           3.3280     0.0060     3.8160 ca         1 462      -0.176000
     11 C10          6.0170    -0.0000     6.4440 cc         1 462      -0.046000
     12 C11          6.9960    -0.8690     6.7630 cd         1 462       0.030900
     13 S1           7.5480    -0.5670     8.4040 ss         1 462      -0.199800
     14 C12          6.3990     0.7520     8.5860 cd         1 462       0.082900
     15 C13          5.6910     0.9000     7.4530 cc         1 462      -0.108300
     16 C14          4.6270     1.9530     7.2900 c3         1 462      -0.029100
     17 C15          3.3280     1.4490     7.8650 c          1 462       0.595100
     18 O2           3.2730     0.3430     8.3590 o          1 462      -0.575100
     19 N1           2.2290     2.2270     7.8320 ns         1 462      -0.085400
     20 C16          1.0670     1.8100     8.4510 c2         1 462       0.047800
     21 N2           1.0040     0.6230     8.9830 n2         1 462      -0.568100
     22 N3          -0.0220     2.6470     8.5080 nz         1 462       0.187400
     23 C17          6.2400     1.5790     9.8020 ca         1 462      -0.011000
     24 C18          6.2590     2.9700     9.7100 ca         1 462      -0.113000
     25 C19          6.1100     3.7360    10.8480 ca         1 462      -0.103000
     26 C20          5.9420     3.1270    12.0790 ca         1 462      -0.084000
     27 C21          5.9220     1.7470    12.1790 ca         1 462      -0.090000
     28 C22          6.0640     0.9690    11.0470 ca         1 462      -0.037600
     29 Cl1          6.0390    -0.7620    11.1730 cl         1 462       0.024600
     30 H11A        -0.3610     0.8880     0.5040 hc         1 462       0.003033
     31 H12         -0.3610    -0.8810     0.5170 hc         1 462       0.003033
     32 H13         -0.3610    -0.0080    -1.0210 hc         1 462       0.003033
     33 H21A         1.8900    -0.8840    -0.5110 hc         1 462       0.028200
     34 H22          1.8900     0.8840    -0.5110 hc         1 462       0.028200
     35 H31          1.6790     0.8850     1.9520 h1         1 462      -0.003800
     36 H32          1.6780    -0.8840     1.9530 h1         1 462      -0.003800
     37 H5           6.0600    -0.0010     1.8150 ha         1 462       0.122000
     38 H6           7.1830    -0.0010     4.0070 ha         1 462       0.104000
     39 H8           3.3590     0.0030     5.9540 ha         1 462       0.104000
     40 H9           2.2460     0.0060     3.7570 ha         1 462       0.122000
     41 H11          7.3850    -1.6380     6.1060 h4         1 462       0.163000
     42 H141         4.4950     2.1730     6.2370 hc         1 462       0.060700
     43 H142         4.9280     2.8540     7.8120 hc         1 462       0.060700
     44 HN1          2.2600     3.1160     7.3730 hn         1 462       0.186500
     45 HN2          1.7950     0.0120     8.9430 hn         1 462       0.457400
     46 HN31        -0.3130     2.8790     7.5790 hn         1 462       0.221800
     47 HN32        -0.7710     2.1890     8.9880 hn         1 462       0.221800
     48 H18          6.4770     3.4470     8.7620 ha         1 462       0.116000
     49 H19          6.1280     4.8170    10.7780 ha         1 462       0.110000
     50 H20          5.8250     3.7330    12.9690 ha         1 462       0.113000
     51 H21          5.7950     1.2770    13.1460 ha         1 462       0.124000
     52 H33          0.2200     3.4750     9.0160 hn         1 462       0.221800
@<TRIPOS>BOND
     1     1     2 1   
     2     1    30 1   
     3     1    31 1   
     4     1    32 1   
     5     2     3 1   
     6     2    33 1   
     7     2    34 1   
     8     3     4 1   
     9     3    35 1   
    10     3    36 1   
    11     4     5 1   
    12     5     6 ar  
    13     5    10 ar  
    14     6     7 ar  
    15     6    37 1   
    16     7     8 ar  
    17     7    38 1   
    18     8     9 ar  
    19     8    11 1   
    20     9    10 ar  
    21     9    39 1   
    22    10    40 1   
    23    11    12 2   
    24    11    15 1   
    25    12    13 1   
    26    12    41 1   
    27    13    14 1   
    28    14    15 2   
    29    14    23 1   
    30    15    16 1   
    31    16    17 1   
    32    16    42 1   
    33    16    43 1   
    34    17    18 2   
    35    17    19 1   
    36    19    20 1   
    37    19    44 1   
    38    20    21 2   
    39    20    22 1   
    40    21    45 1   
    41    22    46 1   
    42    22    47 1   
    43    22    52 1   
    44    23    24 ar  
    45    23    28 ar  
    46    24    25 ar  
    47    24    48 1   
    48    25    26 ar  
    49    25    49 1   
    50    26    27 ar  
    51    26    50 1   
    52    27    28 ar  
    53    27    51 1   
    54    28    29 1   
@<TRIPOS>SUBSTRUCTURE
     1 462         1 TEMP              0 ****  ****    0 ROOT
