@<TRIPOS>MOLECULE
molecule
   52    54     1     0     0
SMALL
bcc


@<TRIPOS>ATOM
      1 C1           0.0000     0.0000     0.0000 c3         1 462      -0.090100
      2 C2           1.5290     0.0000     0.0000 c3         1 462      -0.084400
      3 C3           2.0390     0.0000     1.4420 c3         1 462       0.138400
      4 O1           3.4690    -0.0010     1.4430 os         1 462      -0.321900
      5 C4           4.0860    -0.0000     2.6530 ca         1 462       0.156100
      6 C5           5.4720    -0.0000     2.7250 ca         1 462      -0.193000
      7 C6           6.1010    -0.0010     3.9530 ca         1 462      -0.085000
      8 C7           5.3430     0.0010     5.1220 ca         1 462      -0.070000
      9 C8           3.9510     0.0000     5.0470 ca         1 462      -0.085000
     10 C9           3.3280     0.0060     3.8160 ca         1 462      -0.193000
     11 C10          6.0170    -0.0000     6.4440 cc         1 462      -0.052000
     12 C11          6.9960    -0.8690     6.7630 cd         1 462      -0.065100
     13 S1           7.5480    -0.5670     8.4040 ss         1 462      -0.040800
     14 C12          6.3990     0.7520     8.5860 cd         1 462       0.018900
     15 C13          5.6910     0.9000     7.4530 cc         1 462      -0.100300
     16 C14          4.6270     1.9530     7.2900 c3         1 462      -0.075100
     17 C15          3.3280     1.4490     7.8650 c          1 462       0.644100
     18 O2           3.2730     0.3430     8.3590 o          1 462      -0.459100
     19 N1           2.2290     2.2270     7.8320 ns         1 462      -0.485400
     20 C16          1.0670     1.8100     8.4510 c2         1 462       0.512800
     21 N2           1.0040     0.6230     8.9830 n2         1 462      -0.672100
     22 N3          -0.0220     2.6470     8.5080 nz         1 462      -0.809600
     23 C17          6.2400     1.5790     9.8020 ca         1 462      -0.013000
     24 C18          6.2590     2.9700     9.7100 ca         1 462      -0.128000
     25 C19          6.1100     3.7360    10.8480 ca         1 462      -0.133000
     26 C20          5.9420     3.1270    12.0790 ca         1 462      -0.116000
     27 C21          5.9220     1.7470    12.1790 ca         1 462      -0.116000
     28 C22          6.0640     0.9690    11.0470 ca         1 462       0.038400
     29 Cl1          6.0390    -0.7620    11.1730 cl         1 462      -0.075400
     30 H11A        -0.3610    -0.8990     0.4850 hc         1 462       0.038367
     31 H12         -0.3610     0.8690     0.5360 hc         1 462       0.038367
     32 H13         -0.3610     0.0300    -1.0210 hc         1 462       0.038367
     33 H21A         1.8900    -0.8840    -0.5110 hc         1 462       0.061200
     34 H22          1.8900     0.8840    -0.5110 hc         1 462       0.061200
     35 H31          1.6780    -0.8840     1.9530 h1         1 462       0.029700
     36 H32          1.6790     0.8850     1.9520 h1         1 462       0.029700
     37 H5           6.0600    -0.0010     1.8150 ha         1 462       0.142500
     38 H6           7.1830    -0.0010     4.0070 ha         1 462       0.135000
     39 H8           3.3590     0.0030     5.9540 ha         1 462       0.135000
     40 H9           2.2460     0.0060     3.7570 ha         1 462       0.142500
     41 H11          7.3850    -1.6380     6.1060 h4         1 462       0.186000
     42 H141         4.9280     2.8540     7.8120 hc         1 462       0.084700
     43 H142         4.4950     2.1730     6.2370 hc         1 462       0.084700
     44 HN1          2.2600     3.1170     7.3740 hn         1 462       0.336500
     45 HN2          0.1630     0.3190     9.4330 hn         1 462       0.435400
     46 HN31        -0.1490     3.0890     7.6190 hn         1 462       0.465800
     47 HN32        -0.8390     2.1170     8.7370 hn         1 462       0.465800
     48 H18          6.4780     3.4470     8.7620 ha         1 462       0.141000
     49 H19          6.1330     4.8170    10.7790 ha         1 462       0.138000
     50 H20          5.8240     3.7330    12.9690 ha         1 462       0.144000
     51 H21          5.7920     1.2770    13.1460 ha         1 462       0.154000
     52 H33          0.1220     3.3330     9.2230 hn         1 462       0.465800
@<TRIPOS>BOND
     1     1     2 1   
     2     2     3 1   
     3     3     4 1   
     4    22    20 1   
     5     4     5 1   
     6    19    20 1   
     7    19    17 1   
     8    29    28 1   
     9    20    21 2   
    10     5     6 ar  
    11     5    10 ar  
    12     6     7 ar  
    13    16    17 1   
    14    16    15 1   
    15    10     9 ar  
    16    17    18 2   
    17     7     8 ar  
    18    27    28 ar  
    19    27    26 ar  
    20     9     8 ar  
    21    28    23 ar  
    22     8    11 1   
    23    15    11 1   
    24    15    14 2   
    25    26    25 ar  
    26    11    12 2   
    27    23    14 1   
    28    23    24 ar  
    29    14    13 1   
    30    25    24 ar  
    31    12    13 1   
    32     1    30 1   
    33     1    31 1   
    34     1    32 1   
    35     2    33 1   
    36     2    34 1   
    37     3    35 1   
    38     3    36 1   
    39     6    37 1   
    40     7    38 1   
    41     9    39 1   
    42    10    40 1   
    43    12    41 1   
    44    16    42 1   
    45    16    43 1   
    46    19    44 1   
    47    21    45 1   
    48    22    46 1   
    49    22    47 1   
    50    24    48 1   
    51    25    49 1   
    52    26    50 1   
    53    27    51 1   
    54    52    22 1   
@<TRIPOS>SUBSTRUCTURE
     1 462         1 TEMP              0 ****  ****    0 ROOT
