@<TRIPOS>MOLECULE
463
   25    25     1     0     0
SMALL
bcc


@<TRIPOS>ATOM
      1 C4           0.0000     0.0000     0.0000 ca         1 463      -0.055000
      2 C5           1.3820     0.0000     0.0000 ca         1 463      -0.094000
      3 C6           2.0770     0.0000     1.1960 ca         1 463      -0.189300
      4 C7           3.5840     0.0000     1.1900 c3         1 463       0.037100
      5 C8           1.3910    -0.0000     2.3940 ca         1 463      -0.086000
      6 O            0.8210    -1.2990     4.5710 o          1 463      -0.633100
      7 C1          -0.1900    -0.6380     4.6820 c          1 463       0.570100
      8 C           -0.8790    -0.5340     6.0180 c3         1 463      -0.065100
      9 C2           0.0020    -0.0010     2.3980 ca         1 463      -0.054400
     10 C3          -0.6920     0.0060     1.1950 ca         1 463      -0.083000
     11 H1          -0.5410     0.0020    -0.9390 ha         1 463       0.125000
     12 H2           1.9220    -0.0040    -0.9390 ha         1 463       0.109000
     13 H3           3.7370     1.8580     2.0060 hn         1 463       0.221467
     14 H4           3.7420     1.8560     0.3720 hn         1 463       0.221467
     15 H6           3.9420    -0.5090     0.3040 hx         1 463       0.085200
     16 H7           3.9490    -0.5120     2.0730 hx         1 463       0.085200
     17 H8           1.9350    -0.0000     3.3310 ha         1 463       0.144000
     18 H9          -1.8290    -1.0530     5.9760 hc         1 463       0.034033
     19 H10         -1.0490     0.5090     6.2570 hc         1 463       0.034033
     20 H11         -0.2560    -0.9830     6.7830 hc         1 463       0.034033
     21 H12         -1.5700     0.4870     3.6830 hn         1 463       0.184500
     22 H13         -1.7750     0.0050     1.1940 ha         1 463       0.126000
     23 N           -0.6960     0.0050     3.6110 ns         1 463      -0.048100
     24 N1           4.0730     1.3850     1.1910 nz         1 463       0.074400
     25 H131         5.0740     1.3860     1.1940 hn         1 463       0.221467
@<TRIPOS>BOND
     1     1     2 ar  
     2     1    10 ar  
     3     1    11 1   
     4     2     3 ar  
     5     2    12 1   
     6     3     4 1   
     7     3     5 ar  
     8     4    15 1   
     9     4    16 1   
    10     4    24 1   
    11     5     9 ar  
    12     5    17 1   
    13     6     7 2   
    14     7     8 1   
    15     7    23 1   
    16     8    18 1   
    17     8    19 1   
    18     8    20 1   
    19     9    10 ar  
    20     9    23 1   
    21    10    22 1   
    22    13    24 1   
    23    14    24 1   
    24    21    23 1   
    25    24    25 1   
@<TRIPOS>SUBSTRUCTURE
     1 463         1 TEMP              0 ****  ****    0 ROOT
