@<TRIPOS>MOLECULE
molecule
   25    25     1     0     0
SMALL
bcc


@<TRIPOS>ATOM
      1 C4           0.0000     0.0000     0.0000 ca         1 463      -0.091000
      2 C5           1.3820     0.0000     0.0000 ca         1 463      -0.127000
      3 C6           2.0770     0.0000     1.1960 ca         1 463      -0.177300
      4 C7           3.5840     0.0000     1.1900 c3         1 463       0.160100
      5 C8           1.3910    -0.0000     2.3940 ca         1 463      -0.112000
      6 O            0.8210    -1.2990     4.5710 o          1 463      -0.595100
      7 C1          -0.1900    -0.6380     4.6820 c          1 463       0.662100
      8 C           -0.8790    -0.5340     6.0180 c3         1 463      -0.169100
      9 C2           0.0020    -0.0010     2.3980 ca         1 463       0.083600
     10 C3          -0.6920     0.0060     1.1950 ca         1 463      -0.117000
     11 H1          -0.5410     0.0020    -0.9390 ha         1 463       0.160000
     12 H2           1.9220    -0.0040    -0.9390 ha         1 463       0.135000
     13 H3           3.7370     1.8580     2.0060 hn         1 463       0.453800
     14 H4           3.7420     1.8560     0.3720 hn         1 463       0.453800
     15 H6           3.9420    -0.5090     0.3040 hx         1 463       0.115200
     16 H7           3.9490    -0.5120     2.0730 hx         1 463       0.115200
     17 H8           1.9350    -0.0000     3.3310 ha         1 463       0.165000
     18 H9          -1.8290    -1.0530     5.9760 hc         1 463       0.075033
     19 H10         -1.0490     0.5090     6.2570 hc         1 463       0.075033
     20 H11         -0.2560    -0.9830     6.7830 hc         1 463       0.075033
     21 H12         -1.5700     0.4870     3.6830 hn         1 463       0.341500
     22 H13         -1.7750     0.0050     1.1940 ha         1 463       0.158000
     23 N           -0.6960     0.0050     3.6110 ns         1 463      -0.485100
     24 N1           4.0730     1.3850     1.1910 nz         1 463      -0.810600
     25 H131         5.0740     1.3860     1.1940 hn         1 463       0.453800
@<TRIPOS>BOND
     1     8     7 1
     2     7    23 1
     3     7     6 2
     4    23     9 1
     5     9    10 ar
     6     9     5 ar
     7    10     1 ar
     8     5     3 ar
     9     1     2 ar
    10     3     2 ar
    11     3     4 1
    12     4    24 1
    13     1    11 1
    14     2    12 1
    15    24    13 1
    16    24    14 1
    17     4    15 1
    18     4    16 1
    19     5    17 1
    20     8    18 1
    21     8    19 1
    22     8    20 1
    23    23    21 1
    24    10    22 1
    25    25    24 1
@<TRIPOS>SUBSTRUCTURE
     1 463         1 TEMP              0 ****  ****    0 ROOT
