@<TRIPOS>MOLECULE
464
   69    73     1     0     0
SMALL
bcc


@<TRIPOS>ATOM
      1 C38        -1.0900   -0.9830   -3.5030 c3        1 464      0.164300
      2 C39        -0.3080    0.3220   -3.6300 c3        1 464     -0.077900
      3 C40         0.8780    0.3370   -2.6900 c3        1 464     -0.085400
      4 C41         0.4350    0.0500   -1.2720 c3        1 464     -0.077900
      5 C42        -0.3660   -1.2480   -1.1930 c3        1 464      0.164300
      6 N37        -1.4880   -1.2840   -2.1290 n3        1 464     -0.779600
      7 C36        -2.2590   -2.5110   -2.0310 c3        1 464      0.143800
      8 C35        -3.7650   -2.2610   -2.2620 c3        1 464      0.107800
      9 N33        -4.3140   -1.1530   -1.4240 n4        1 464     -0.670800
     10 C31        -4.7020   -1.5660   -0.0170 c         1 464      0.568700
     11 O32        -4.3000   -2.6570    0.3630 o         1 464     -0.420100
     12 C29        -5.5520   -0.6180    0.7080 ca        1 464     -0.195600
     13 C30        -5.4880    0.7690    0.5070 ca        1 464     -0.115000
     14 C28        -6.4310   -1.1590    1.6580 ca        1 464     -0.057000
     15 C27        -7.2610   -0.3060    2.3850 ca        1 464     -0.118000
     16 C26        -7.2090    1.0680    2.1810 ca        1 464     -0.069000
     17 C25        -6.3140    1.6280    1.2460 ca        1 464      0.042000
     18 C23        -6.2570    3.0530    1.0610 cc        1 464     -0.153000
     19 C24        -6.8270    4.0550    1.9230 cc        1 464     -0.146000
     20 C22        -5.6430    3.7440   -0.0100 cd        1 464     -0.108300
     21 N20        -5.8320    5.0980    0.1680 na        1 464     -0.140100
     22 C19        -6.5470    5.3080    1.3530 cd        1 464     -0.132600
     23 C18        -6.9820    6.6410    1.8330 c3        1 464      0.034100
     24 C4         -5.9020    7.4930    2.3470 cc        1 464     -0.093400
     25 C6         -5.7900    8.1550    3.5320 ca        1 464     -0.124000
     26 C7         -6.6350    8.2580    4.6810 ca        1 464     -0.059000
     27 C2         -4.6440    7.8850    1.5360 c         1 464      0.667700
     28 O3         -4.3880    7.5510    0.3860 o         1 464     -0.443100
     29 N1         -3.8210    8.7650    2.3720 nc        1 464     -0.262400
     30 C5         -4.4820    8.9190    3.4950 ca        1 464      0.054000
     31 C10        -4.1310    9.7090    4.6630 ca        1 464     -0.058000
     32 C9         -4.9720    9.7700    5.7150 ca        1 464     -0.125000
     33 C8         -6.2490    9.0500    5.7290 ca        1 464      0.003600
     34 N11        -7.0260    9.2190    6.9120 n         1 464     -0.404100
     35 C13        -8.3730    9.0050    6.9480 c         1 464      0.642100
     36 O17        -9.1210    8.4680    6.1270 o         1 464     -0.473100
     37 N14        -9.1210    9.4310    8.2280 n4        1 464     -0.755400
     38 H381       -2.0300   -0.9100   -4.1200 h1        1 464      0.040950
     39 H382       -0.4630   -1.8190   -3.9350 h1        1 464      0.040950
     40 H391       -0.9780    1.1930   -3.4090 hc        1 464      0.054200
     41 H392        0.0390    0.4190   -4.6910 hc        1 464      0.054200
     42 H401        1.6270   -0.4320   -3.0150 hc        1 464      0.059700
     43 H402        1.3830    1.3370   -2.7340 hc        1 464      0.059700
     44 H411       -0.1810    0.9030   -0.8870 hc        1 464      0.054200
     45 H412        1.3290   -0.0530   -0.6020 hc        1 464      0.054200
     46 H421        0.3360   -2.1140   -1.3720 h1        1 464      0.040950
     47 H422       -0.7840   -1.3550   -0.1530 h1        1 464      0.040950
     48 H361       -2.1300   -2.9730   -1.0100 h1        1 464      0.083200
     49 H362       -1.9570   -3.2860   -2.7960 h1        1 464      0.083200
     50 H351       -4.3250   -3.2080   -2.0180 hx        1 464      0.106200
     51 H352       -3.9490   -1.9830   -3.3390 hx        1 464      0.106200
     52 HN33       -3.6030   -0.4090   -1.3510 hn        1 464      0.466300
     53 H30        -4.7720    1.2100   -0.2010 ha        1 464      0.126000
     54 H28        -6.4610   -2.2490    1.8290 ha        1 464      0.169000
     55 H27        -7.9600   -0.7300    3.1250 ha        1 464      0.166000
     56 H26        -7.8740    1.7320    2.7570 ha        1 464      0.157000
     57 H24        -7.3720    3.8790    2.8450 ha        1 464      0.156000
     58 H22        -5.1040    3.3590   -0.8760 h4        1 464      0.168000
     59 HN20       -5.4670    5.8190   -0.4090 hn        1 464      0.328700
     60 H181       -7.7540    6.4810    2.6380 hc        1 464      0.086700
     61 H182       -7.4920    7.1980    0.9900 hc        1 464      0.086700
     62 H7         -7.5860    7.6980    4.6660 ha        1 464      0.171000
     63 H10        -3.1690   10.2510    4.6520 ha        1 464      0.190000
     64 H9         -4.6960   10.3760    6.5950 ha        1 464      0.153000
     65 HN11       -6.5610    9.6750    7.6710 hn        1 464      0.356500
     66 H141      -10.1090    9.1650    8.1010 hn        1 464      0.476133
     67 H142       -8.7520    8.9540    9.0550 hn        1 464      0.476133
     68 H332       -5.1450   -0.7610   -1.8780 hn        1 464      0.466300
     69 H143       -9.0650   10.4440    8.3660 hn        1 464      0.476133
@<TRIPOS>BOND
     1    1    2 1
     2    1    6 1
     3    1   38 1
     4    1   39 1
     5    2    3 1
     6    2   40 1
     7    2   41 1
     8    3    4 1
     9    3   42 1
    10    3   43 1
    11    4    5 1
    12    4   44 1
    13    4   45 1
    14    5    6 1
    15    5   46 1
    16    5   47 1
    17    6    7 1
    18    7    8 1
    19    7   48 1
    20    7   49 1
    21    8    9 1
    22    8   50 1
    23    8   51 1
    24    9   10 1
    25    9   52 1
    26    9   68 1
    27   10   11 2
    28   10   12 1
    29   12   13 ar
    30   12   14 ar
    31   13   17 ar
    32   13   53 1
    33   14   15 ar
    34   14   54 1
    35   15   16 ar
    36   15   55 1
    37   16   17 ar
    38   16   56 1
    39   17   18 1
    40   18   19 1
    41   18   20 2
    42   19   22 2
    43   19   57 1
    44   20   21 1
    45   20   58 1
    46   21   22 1
    47   21   59 1
    48   22   23 1
    49   23   24 1
    50   23   60 1
    51   23   61 1
    52   24   25 2
    53   24   27 1
    54   25   26 ar
    55   25   30 ar
    56   26   33 ar
    57   26   62 1
    58   27   28 2
    59   27   29 1
    60   29   30 2
    61   30   31 ar
    62   31   32 ar
    63   31   63 1
    64   32   33 ar
    65   32   64 1
    66   33   34 1
    67   34   35 1
    68   34   65 1
    69   35   36 2
    70   35   37 1
    71   37   66 1
    72   37   67 1
    73   37   69 1
@<TRIPOS>SUBSTRUCTURE
     1 464         1 TEMP              0 ****  ****    0 ROOT
