@<TRIPOS>MOLECULE
465
   32    34     1     0     0
SMALL
bcc


@<TRIPOS>ATOM
      1 C1           0.0000     0.0000     0.0000 ca         1 465      -0.148200
      2 C2           1.3850     0.0000     0.0000 ca         1 465      -0.165300
      3 C3           2.2020     0.0000     1.1370 ca         1 465       0.383600
      4 C4           1.5130     0.0010     2.4320 ca         1 465       0.062100
      5 C5           0.1210     0.0030     2.4230 ca         1 465      -0.081600
      6 C6          -0.6300    -0.0030     1.2420 ca         1 465       0.126600
      7 C7           1.8790    -0.0020    -1.3150 ca         1 465      -0.091000
      8 C8           3.2570    -0.0040    -1.4350 ca         1 465      -0.032300
      9 C9           4.0320    -0.0030    -0.2610 ca         1 465       0.212800
     10 N10          3.5130    -0.0020     0.9620 nb         1 465      -0.531000
     11 N11         -0.4060    -0.0010    -1.3320 n          1 465       0.251700
     12 C12          0.6760    -0.0020    -2.1550 c          1 465       0.228800
     13 O13          0.6520    -0.0030    -3.3720 o          1 465      -0.316000
     14 C14         -1.7990    -0.0000    -1.7830 c3         1 465       0.017600
     15 N15         -2.0200    -0.0020     1.3100 nv         1 465      -0.563200
     16 Cl1         -0.7180     0.0040     3.9420 cl         1 465       0.056600
     17 N17          2.2130     0.0010     3.6070 ne         1 465      -0.442100
     18 C18          2.5450     1.1210     4.1610 c2         1 465       0.500100
     19 C19          5.5070    -0.0060    -0.3950 c          1 465       0.247600
     20 O20          6.0160    -0.0080    -1.5000 o          1 465      -0.425100
     21 N21          6.2840    -0.0060     0.7050 nz         1 465       0.214600
     22 H8           3.7280    -0.0050    -2.4110 ha         1 465       0.149000
     23 H14         -1.8290     0.0010    -2.8660 h1         1 465       0.028367
     24 H14A        -2.3000     0.8840    -1.4070 h1         1 465       0.028367
     25 H14B        -2.3000    -0.8850    -1.4100 h1         1 465       0.028367
     26 HN15        -2.5190     0.8650     1.3380 hn         1 465       0.297800
     27 HN1A        -2.5200    -0.8690     1.3380 hn         1 465       0.297800
     28 H18          2.2690     2.0590     3.6960 h4         1 465      -0.039700
     29 H18A         3.1000     1.1210     5.0920 h4         1 465      -0.039700
     30 HN21         7.2470    -0.0090     0.4330 hn         1 465       0.246800
     31 HN2A         6.0880    -0.8210     1.2510 hn         1 465       0.246800
     32 H213         6.0930     0.8130     1.2480 hn         1 465       0.246800
@<TRIPOS>BOND
     1     1     2 ar  
     2     1     6 ar  
     3     1    11 1   
     4     2     3 ar  
     5     2     7 ar  
     6     3     4 ar  
     7     3    10 ar  
     8     4     5 ar  
     9     4    17 1   
    10     5     6 ar  
    11     5    16 1   
    12     6    15 1   
    13     7     8 ar  
    14     7    12 1   
    15     8     9 ar  
    16     8    22 1   
    17     9    10 ar  
    18     9    19 1   
    19    11    12 1   
    20    11    14 1   
    21    12    13 2   
    22    14    23 1   
    23    14    24 1   
    24    14    25 1   
    25    15    26 1   
    26    15    27 1   
    27    17    18 2   
    28    18    28 1   
    29    18    29 1   
    30    19    20 2   
    31    19    21 1   
    32    21    30 1   
    33    21    31 1   
    34    21    32 1   
@<TRIPOS>SUBSTRUCTURE
     1 465         1 TEMP              0 ****  ****    0 ROOT
