@<TRIPOS>MOLECULE
467
   44    46     1     0     0
SMALL
bcc


@<TRIPOS>ATOM
      1 F3           0.0000     0.0000     0.0000 f          1 467      -0.117900
      2 C7           1.3510     0.0000     0.0000 ca         1 467      -0.233700
      3 C8           2.0570     0.0000     1.1890 ca         1 467       0.471200
      4 N2           3.3820    -0.0050     1.1570 nb         1 467      -0.659000
      5 C9           4.0350    -0.0110     0.0020 ca         1 467       0.752800
      6 N3           3.3940    -0.0120    -1.1620 nb         1 467      -0.689000
      7 C6           2.0670    -0.0070    -1.2010 ca         1 467       0.544200
      8 N1           1.4000    -0.0130    -2.4180 nu         1 467      -0.509900
      9 C1           2.1610    -0.0210    -3.6700 c3         1 467       0.069200
     10 C2           3.0420    -1.2710    -3.7250 c3         1 467      -0.016100
     11 C3           1.2070    -0.0270    -4.8370 c          1 467       0.576100
     12 N            0.0400    -0.6960    -4.7490 ns         1 467      -0.203900
     13 C4          -0.8870    -0.7020    -5.8840 c3         1 467      -0.005000
     14 C5          -2.1260    -1.5280    -5.5260 c3         1 467       0.557900
     15 F2          -1.7410    -2.8400    -5.2300 f          1 467      -0.201967
     16 F1          -2.7560    -0.9630    -4.4110 f          1 467      -0.201967
     17 F           -3.0110    -1.5340    -6.6090 f          1 467      -0.201967
     18 O            1.4890     0.5700    -5.8540 o          1 467      -0.616100
     19 C            3.0410     1.2280    -3.7390 c3         1 467      -0.016100
     20 C10          5.5140    -0.0170     0.0100 cc         1 467      -0.228000
     21 C13          6.3880    -0.0170     1.1940 ca         1 467      -0.170100
     22 C14          6.1630    -0.0120     2.5690 ca         1 467      -0.005000
     23 C15          7.2640    -0.0150     3.4090 ca         1 467      -0.186900
     24 Cl           7.0520    -0.0090     5.1320 cl         1 467      -0.011400
     25 C16          8.5360    -0.0210     2.8590 ca         1 467       0.417200
     26 N5           8.7240    -0.0250     1.5570 nb         1 467      -0.564000
     27 C12          7.7070    -0.0240     0.7060 ca         1 467       0.215800
     28 N4           7.6330    -0.0270    -0.6690 na         1 467       0.276900
     29 C11          6.3320    -0.0300    -1.0730 cd         1 467      -0.214100
     30 H1           1.5330     0.0050     2.1370 h4         1 467      -0.004900
     31 H2           0.4010     0.0260    -2.4400 hn         1 467       0.304800
     32 H3           3.0720    -1.6470    -4.7400 hc         1 467       0.025533
     33 H4           2.6320    -2.0310    -3.0700 hc         1 467       0.025533
     34 H5           4.0450    -1.0200    -3.4030 hc         1 467       0.025533
     35 H6          -0.1730    -1.2250    -3.9270 hn         1 467       0.190500
     36 H7          -0.3990    -1.1390    -6.7470 h1         1 467       0.062700
     37 H8          -1.1840     0.3140    -6.1120 h1         1 467       0.062700
     38 H9           2.4360     2.1070    -3.5530 hc         1 467       0.025533
     39 H10          3.8220     1.1610    -2.9900 hc         1 467       0.025533
     40 H11          3.4900     1.3000    -4.7220 hc         1 467       0.025533
     41 H12          5.1840    -0.2630     2.9590 ha         1 467       0.139000
     42 H13          9.3970    -0.0230     3.5180 h4         1 467      -0.011900
     43 H14          8.4230    -0.0350    -1.2830 hn         1 467       0.121700
     44 H15          6.0000    -0.0400    -2.1040 h4         1 467       0.155000
@<TRIPOS>BOND
     1     1     2 1   
     2     2     3 ar  
     3     2     7 ar  
     4     3     4 ar  
     5     3    30 1   
     6     4     5 ar  
     7     5     6 ar  
     8     5    20 1   
     9     6     7 ar  
    10     7     8 1   
    11     8     9 1   
    12     8    31 1   
    13     9    10 1   
    14     9    11 1   
    15     9    19 1   
    16    10    32 1   
    17    10    33 1   
    18    10    34 1   
    19    11    12 1   
    20    11    18 2   
    21    12    13 1   
    22    12    35 1   
    23    13    14 1   
    24    13    36 1   
    25    13    37 1   
    26    14    15 1   
    27    14    16 1   
    28    14    17 1   
    29    19    38 1   
    30    19    39 1   
    31    19    40 1   
    32    20    21 1   
    33    20    29 2   
    34    21    22 ar  
    35    21    27 ar  
    36    22    23 ar  
    37    22    41 1   
    38    23    24 1   
    39    23    25 ar  
    40    25    26 ar  
    41    25    42 1   
    42    26    27 ar  
    43    27    28 1   
    44    28    29 1   
    45    28    43 1   
    46    29    44 1   
@<TRIPOS>SUBSTRUCTURE
     1 467         1 TEMP              0 ****  ****    0 ROOT
