@<TRIPOS>MOLECULE
molecule
   46    48     1     0     0
SMALL
bcc


@<TRIPOS>ATOM
      1 C1           0.0000     0.0000     0.0000 c3         1 468      -0.075400
      2 C2           1.5280     0.0000     0.0000 c3         1 468      -0.091400
      3 C3           2.0860     0.0000     1.4280 c3         1 468       0.128700
      4 C4           1.5250     1.1720     2.2400 c3         1 468      -0.091400
      5 C5          -0.0030     1.1720     2.2370 c3         1 468      -0.075400
      6 C6          -0.5630     1.1590     0.8180 c3         1 468      -0.080400
      7 C7           4.4120    -0.8890     1.8960 c          1 468       0.718500
      8 C8           5.8180    -0.4570     1.5460 c3         1 468      -0.163400
      9 C9           5.6690     1.0040     1.1430 c3         1 468      -0.179700
     10 C10          4.2280     1.1430     0.6960 c3         1 468       0.117000
     11 N11          3.5450     0.0740     1.3910 n          1 468      -0.493800
     12 C12          5.8990     1.8780     2.3650 c          1 468       0.681100
     13 N13          7.2270     2.2760     2.4540 ns         1 468      -0.485100
     14 O14          4.9740     2.1520     3.1230 o          1 468      -0.558100
     15 O15          4.1310    -1.9250     2.4820 o          1 468      -0.609500
     16 C15          7.8170     3.0910     3.4490 ca         1 468       0.075600
     17 C20          7.0110     3.5660     4.4720 ca         1 468      -0.159000
     18 C19          7.5710     4.3720     5.4640 ca         1 468      -0.098000
     19 C18          8.9280     4.6900     5.4210 ca         1 468      -0.146000
     20 C17          9.7260     4.2040     4.3840 ca         1 468       0.049400
     21 C16          9.1670     3.3990     3.3930 ca         1 468      -0.121300
     22 C23         10.0120     2.8710     2.2750 c3         1 468      -0.054800
     23 Cl1         11.4010     4.6230     4.3680 cl         1 468      -0.100400
     24 HN13         7.8360     1.9490     1.7300 hn         1 468       0.321500
     25 H9           6.3510     1.2560     0.3400 hc         1 468       0.071700
     26 H101         4.1490     1.0090    -0.3760 h1         1 468       0.057200
     27 H102         3.8300     2.1050     0.9960 h1         1 468       0.057200
     28 H81          6.4660    -0.5460     2.4090 hc         1 468       0.083200
     29 H82          6.1970    -1.0410     0.7160 hc         1 468       0.083200
     30 H3           1.7940    -0.9240     1.9110 h1         1 468       0.079700
     31 H41          1.8790     2.1020     1.8100 hc         1 468       0.047700
     32 H42          1.8760     1.0930     3.2620 hc         1 468       0.047700
     33 H4          -0.3560     0.2920     2.7620 hc         1 468       0.043200
     34 H5          -0.3570     2.0600     2.7470 hc         1 468       0.043200
     35 H7          -1.6410     1.0640     0.8660 hc         1 468       0.040200
     36 H6          -0.3070     2.0910     0.3290 hc         1 468       0.040200
     37 H8          -0.3520     0.0860    -1.0210 hc         1 468       0.043200
     38 H1          -0.3520    -0.9330     0.4230 hc         1 468       0.043200
     39 H2           1.8810     0.8840    -0.5170 hc         1 468       0.047700
     40 H10          1.8810    -0.8840    -0.5170 hc         1 468       0.047700
     41 H18          9.3620     5.3160     6.1910 ha         1 468       0.146000
     42 H19          6.9510     4.7490     6.2690 ha         1 468       0.142000
     43 H20          5.9580     3.3160     4.5000 ha         1 468       0.179000
     44 H231         9.6350     3.2420     1.3300 hc         1 468       0.049367
     45 H232        11.0360     3.2010     2.4090 hc         1 468       0.049367
     46 H233         9.9790     1.7880     2.2770 hc         1 468       0.049367
@<TRIPOS>BOND
     1     1     6 1
     2     1    37 1
     3     1    38 1
     4     1     2 1
     5     2     3 1
     6     2    39 1
     7     2    40 1
     8     3    11 1
     9     3    30 1
    10     3     4 1
    11     4    31 1
    12     4    32 1
    13     4     5 1
    14     5    33 1
    15     5    34 1
    16     5     6 1
    17     6    35 1
    18     6    36 1
    19     7    11 1
    20     7    15 2
    21     7     8 1
    22     8     9 1
    23     8    28 1
    24     8    29 1
    25     9    12 1
    26     9    25 1
    27     9    10 1
    28    10    26 1
    29    10    27 1
    30    10    11 1
    31    12    13 1
    32    12    14 2
    33    13    24 1
    34    13    16 1
    35    16    21 ar
    36    16    17 ar
    37    17    18 ar
    38    17    43 1
    39    18    19 ar
    40    18    42 1
    41    19    20 ar
    42    19    41 1
    43    20    21 ar
    44    20    23 1
    45    21    22 1
    46    22    44 1
    47    22    45 1
    48    22    46 1
@<TRIPOS>SUBSTRUCTURE
     1 468         1 TEMP              0 ****  ****    0 ROOT
