@<TRIPOS>MOLECULE
molecule
   66    69     1     0     0
SMALL
bcc


@<TRIPOS>ATOM
      1 CAC          0.0000     0.0000     0.0000 c3         1 469       0.098800
      2 NBG          1.4660     0.0000     0.0000 n          1 469      -0.469800
      3 CAD          2.1970     0.0000     1.2690 c3         1 469       0.098800
      4 CAV          2.1390     0.0000    -1.1670 c          1 469       0.580100
      5 OAG          1.5350    -0.0580    -2.2180 o          1 469      -0.617100
      6 CAU          3.6290     0.0710    -1.1680 c          1 469       0.551300
      7 OAF          4.2410     0.0030    -0.1200 o          1 469      -0.535100
      8 CBB          4.3540     0.2220    -2.4280 cc         1 469      -0.264400
      9 CBC          5.8160     0.3080    -2.6070 ca         1 469      -0.061800
     10 CAP          6.8960     0.2780    -1.7350 ca         1 469      -0.052000
     11 CAQ          3.8080     0.3080    -3.6950 cd         1 469      -0.004100
     12 NBJ          4.7920     0.4410    -4.6030 na         1 469      -0.046400
     13 CAE          4.5800     0.5600    -6.0470 c3         1 469       0.028600
     14 CBD          6.0260     0.4460    -3.9900 ca         1 469      -0.041200
     15 CAO          7.3260     0.5520    -4.4820 ca         1 469      -0.136000
     16 CAY          8.3960     0.5230    -3.6170 ca         1 469       0.076400
     17 ClA         10.0110     0.6570    -4.2400 cl         1 469      -0.081400
     18 CBA          8.1910     0.3850    -2.2370 ca         1 469      -0.150600
     19 CAW          9.3450     0.3550    -1.3180 c          1 469       0.679700
     20 OAH         10.2500    -0.4360    -1.5040 o          1 469      -0.592100
     21 NBI          9.3960     1.2030    -0.2720 n          1 469      -0.482800
     22 CBF         10.5810     1.2580     0.5980 c3         1 469       0.122700
     23 CAS         11.0280     2.7180     0.7210 c3         1 469       0.137800
     24 CAB         10.2270     0.7110     1.9820 c3         1 469      -0.104100
     25 CAT          8.2720     2.1030     0.0260 c3         1 469       0.101000
     26 CBE          8.8150     3.5290     0.1720 c3         1 469       0.152500
     27 CAA          9.3540     4.0100    -1.1770 c3         1 469      -0.134100
     28 NBH          9.8930     3.5390     1.1640 n3         1 469      -0.718600
     29 CAR         10.3210     4.9130     1.4590 c3         1 469       0.207100
     30 CAZ         11.2450     4.9070     2.6490 ca         1 469      -0.097300
     31 CAM         10.7280     5.0340     3.9260 ca         1 469      -0.093000
     32 CAK         11.5750     5.0290     5.0180 ca         1 469      -0.168000
     33 CAX         12.9410     4.8950     4.8330 ca         1 469       0.133900
     34 FAI         13.7690     4.8900     5.9010 f          1 469      -0.141900
     35 CAL         13.4570     4.7680     3.5550 ca         1 469      -0.168000
     36 CAN         12.6070     4.7690     2.4640 ca         1 469      -0.093000
     37 HAC         -0.3610     0.0190     1.0210 h1         1 469       0.047367
     38 HACA        -0.3610    -0.8940    -0.4940 h1         1 469       0.047367
     39 HACB        -0.3610     0.8750    -0.5270 h1         1 469       0.047367
     40 HAD          1.4930    -0.0150     2.0920 h1         1 469       0.047367
     41 HADA         2.8090     0.8920     1.3330 h1         1 469       0.047367
     42 HADB         2.8310    -0.8770     1.3210 h1         1 469       0.047367
     43 HAP          6.7320     0.1710    -0.6690 ha         1 469       0.165000
     44 HAQ          2.7490     0.2730    -3.9230 h4         1 469       0.212000
     45 HAE          3.5170     0.5650    -6.2570 h1         1 469       0.058033
     46 HAEA         5.0220     1.4840    -6.4020 h1         1 469       0.058033
     47 HAEB         5.0440    -0.2790    -6.5510 h1         1 469       0.058033
     48 HAO          7.4950     0.6390    -5.5480 ha         1 469       0.144000
     49 HBF         11.3790     0.6700     0.1620 h1         1 469       0.090700
     50 HAS         11.3740     3.0720    -0.2430 h1         1 469       0.048700
     51 HASA        11.8290     2.7900     1.4470 h1         1 469       0.048700
     52 HAB          9.6510    -0.2010     1.8740 hc         1 469       0.046367
     53 HABA         9.6410     1.4450     2.5220 hc         1 469       0.046367
     54 HABB        11.1360     0.5000     2.5310 hc         1 469       0.046367
     55 HAT          7.7980     1.7990     0.9520 h1         1 469       0.064200
     56 HATA         7.5550     2.0690    -0.7850 h1         1 469       0.064200
     57 HBE          8.0170     4.1840     0.5010 h1         1 469       0.065700
     58 HAA         10.0240     3.2630    -1.5850 hc         1 469       0.044033
     59 HAAA         8.5290     4.1680    -1.8600 hc         1 469       0.044033
     60 HAAB         9.8920     4.9400    -1.0400 hc         1 469       0.044033
     61 HAR          9.4520     5.5220     1.6800 h1         1 469       0.042700
     62 HARA        10.8400     5.3220     0.6010 h1         1 469       0.042700
     63 HAM          9.6600     5.1380     4.0700 ha         1 469       0.138000
     64 HAK         11.1700     5.1280     6.0180 ha         1 469       0.145000
     65 HAL         14.5250     4.6620     3.4100 ha         1 469       0.145000
     66 HAN         13.0110     4.6690     1.4640 ha         1 469       0.138000
@<TRIPOS>BOND
     1     1     2 1   
     2     1    37 1   
     3     1    38 1   
     4     1    39 1   
     5     3     2 1   
     6     2     4 1   
     7     3    40 1   
     8     3    41 1   
     9     3    42 1   
    10     4     6 1   
    11     4     5 2   
    12     7     6 2   
    13     6     8 1   
    14     8     9 1   
    15     8    11 2   
    16    10     9 ar  
    17     9    14 ar  
    18    10    18 ar  
    19    10    43 1   
    20    11    12 1   
    21    11    44 1   
    22    14    12 1   
    23    12    13 1   
    24    13    45 1   
    25    13    46 1   
    26    13    47 1   
    27    14    15 ar  
    28    16    15 ar  
    29    15    48 1   
    30    18    16 ar  
    31    16    17 1   
    32    19    18 1   
    33    20    19 2   
    34    19    21 1   
    35    22    21 1   
    36    21    25 1   
    37    22    24 1   
    38    22    23 1   
    39    22    49 1   
    40    23    28 1   
    41    23    50 1   
    42    23    51 1   
    43    24    52 1   
    44    24    53 1   
    45    24    54 1   
    46    25    26 1   
    47    25    55 1   
    48    25    56 1   
    49    27    26 1   
    50    28    26 1   
    51    26    57 1   
    52    27    58 1   
    53    27    59 1   
    54    27    60 1   
    55    28    29 1   
    56    30    29 1   
    57    29    61 1   
    58    29    62 1   
    59    31    30 ar  
    60    30    36 ar  
    61    32    31 ar  
    62    31    63 1   
    63    32    33 ar  
    64    32    64 1   
    65    34    33 1   
    66    33    35 ar  
    67    35    36 ar  
    68    35    65 1   
    69    36    66 1   
@<TRIPOS>SUBSTRUCTURE
     1 469         1 TEMP              0 ****  ****    0 ROOT
