@<TRIPOS>MOLECULE
molecule
   58    61     1     0     0
SMALL
bcc


@<TRIPOS>ATOM
      1 N1           0.0000     0.0000     0.0000 nb         1 46A      -0.807000
      2 C5          -2.7590    -0.0010    -0.1840 c3         1 46A       0.289100
      3 C6          -3.0000     1.4200    -0.6270 ca         1 46A      -0.099300
      4 C7          -2.0550     2.0690    -1.4010 ca         1 46A      -0.122000
      5 C8          -2.2700     3.3700    -1.8080 ca         1 46A      -0.080500
      6 C10         -4.3900     3.3690    -0.6590 ca         1 46A      -0.080500
      7 C13         -2.6940     6.3940    -1.6840 ca         1 46A      -0.125000
      8 C15         -4.1200     8.0460    -2.6830 ca         1 46A      -0.139000
      9 C17         -4.8930     5.7820    -2.4800 ca         1 46A      -0.113500
     10 C28          1.9990     0.0000     1.2100 ca         1 46A      -0.447600
     11 C           -3.8910    -1.4420     4.0920 c3         1 46A      -0.083400
     12 C2          -3.0910    -1.4420     2.7870 c3         1 46A      -0.104400
     13 C3          -2.8260     0.0010     2.3520 c3         1 46A       0.243800
     14 N           -2.0610    -0.0010     1.1030 nh         1 46A      -0.800300
     15 C9          -3.4410     4.0290    -1.4390 cp         1 46A      -0.062000
     16 C11         -4.1660     2.0670    -0.2610 ca         1 46A      -0.122000
     17 C12         -3.6770     5.4270    -1.8740 cp         1 46A       0.007000
     18 C14         -2.9210     7.6960    -2.0860 ca         1 46A      -0.112000
     19 C16         -5.1030     7.0970    -2.8830 ca         1 46A      -0.094000
     20 C18         -5.9490     4.7600    -2.6870 cc         1 46A       0.576500
     21 N19         -5.8870     3.4640    -2.3500 nc         1 46A      -0.371000
     22 N20         -7.0050     2.9250    -2.6990 nd         1 46A      -0.207800
     23 N21         -7.7540     3.8220    -3.2360 na         1 46A       0.194900
     24 N22         -7.1330     4.9520    -3.2340 nd         1 46A      -0.571800
     25 C23          1.3230     0.0000     0.0000 ca         1 46A       0.506600
     26 C25         -0.6770     0.0000     1.1390 ca         1 46A       0.954900
     27 N2          -0.0610     0.0000     2.3120 nb         1 46A      -0.807000
     28 C27          1.2600     0.0000     2.3830 ca         1 46A       0.506600
     29 C29          1.9530    -0.0000     3.7200 c3         1 46A      -0.144400
     30 C30          2.0850    -0.0010    -1.3000 c3         1 46A      -0.144400
     31 C31         -4.1580    -2.8850     4.5280 c3         1 46A      -0.090100
     32 H5          -3.7080    -0.5120    -0.0800 h1         1 46A       0.064700
     33 H5A         -2.1540    -0.5120    -0.9230 h1         1 46A       0.064700
     34 H7          -1.1450     1.5560    -1.6880 ha         1 46A       0.137000
     35 H8          -1.5290     3.8780    -2.4150 ha         1 46A       0.129500
     36 H10         -5.3030     3.8760    -0.3700 ha         1 46A       0.129500
     37 H13         -1.7540     6.1270    -1.2180 ha         1 46A       0.142000
     38 H15         -4.2880     9.0690    -2.9960 ha         1 46A       0.134000
     39 H28          3.0820    -0.0000     1.2380 ha         1 46A       0.141000
     40 H           -3.3260    -0.9310     4.8620 hc         1 46A       0.040200
     41 HA          -4.8340    -0.9320     3.9380 hc         1 46A       0.040200
     42 H2          -3.6560    -1.9540     2.0170 hc         1 46A       0.049700
     43 H2A         -2.1480    -1.9520     2.9420 hc         1 46A       0.049700
     44 H3          -2.2610     0.5120     3.1220 h1         1 46A       0.059700
     45 H3A         -3.7700     0.5100     2.1970 h1         1 46A       0.059700
     46 H11         -4.9020     1.5530     0.3450 ha         1 46A       0.137000
     47 H14         -2.1550     8.4470    -1.9350 ha         1 46A       0.132000
     48 H16         -6.0390     7.3770    -3.3510 ha         1 46A       0.146000
     49 H29          1.2490     0.2900     4.4910 hc         1 46A       0.054367
     50 H29A         2.7770     0.7030     3.7000 hc         1 46A       0.054367
     51 H29B         2.3300    -0.9930     3.9310 hc         1 46A       0.054367
     52 H30          2.4340     1.0020    -1.5150 hc         1 46A       0.054367
     53 H30A         2.9340    -0.6690    -1.2210 hc         1 46A       0.054367
     54 H30B         1.4350    -0.3350    -2.1000 hc         1 46A       0.054367
     55 H31         -3.2150    -3.3960     4.6800 hc         1 46A       0.033033
     56 H31A        -4.7250    -3.3950     3.7590 hc         1 46A       0.033033
     57 H31B        -4.7220    -2.8840     5.4530 hc         1 46A       0.033033
     58 H27         -8.6760     3.6690    -3.5930 hn         1 46A       0.368700
@<TRIPOS>BOND
     1     1    26 ar  
     2     2    14 1   
     3     2    32 1   
     4     2    33 1   
     5     3     2 1   
     6     4     3 ar  
     7     4    34 1   
     8     5     4 ar  
     9     5    35 1   
    10     6    16 ar  
    11     6    36 1   
    12     7    37 1   
    13     8    18 ar  
    14     8    38 1   
    15     9    17 ar  
    16    10    28 ar  
    17    10    39 1   
    18    11    31 1   
    19    11    40 1   
    20    11    41 1   
    21    12    11 1   
    22    12    42 1   
    23    12    43 1   
    24    13    12 1   
    25    13    44 1   
    26    13    45 1   
    27    14    13 1   
    28    15     5 ar  
    29    15     6 ar  
    30    16     3 ar  
    31    16    46 1   
    32    17     7 ar  
    33    17    15 1   
    34    18     7 ar  
    35    18    47 1   
    36    19     8 ar  
    37    19     9 ar  
    38    19    48 1   
    39    20     9 1   
    40    21    20 1   
    41    22    21 2   
    42    22    23 1   
    43    23    24 1   
    44    24    20 2   
    45    25     1 ar  
    46    25    10 ar  
    47    26    14 1   
    48    26    27 ar  
    49    28    27 ar  
    50    28    29 1   
    51    29    49 1   
    52    29    50 1   
    53    29    51 1   
    54    30    25 1   
    55    30    52 1   
    56    30    53 1   
    57    30    54 1   
    58    31    55 1   
    59    31    56 1   
    60    31    57 1   
    61    23    58 1   
@<TRIPOS>SUBSTRUCTURE
     1 46A         1 TEMP              0 ****  ****    0 ROOT
