@<TRIPOS>MOLECULE
molecule
   45    47     1     0     0
SMALL
bcc


@<TRIPOS>ATOM
      1 O19          0.0000     0.0000     0.0000 o          1 46B      -0.826300
      2 C18          1.3420     0.0000     0.0000 c          1 46B       0.895600
      3 O20          1.9460     0.0000     1.0460 o          1 46B      -0.826300
      4 C17          2.0950     0.0010    -1.3060 c3         1 46B       0.016400
      5 O16          3.5010     0.0010    -1.0440 os         1 46B      -0.282900
      6 C13          4.3280     0.0020    -2.1220 ca         1 46B       0.177100
      7 C14          5.7040     0.0020    -1.9390 ca         1 46B      -0.212500
      8 C15          6.5470     0.0030    -3.0310 ca         1 46B      -0.074500
      9 C12          3.7960    -0.0030    -3.4040 ca         1 46B      -0.212500
     10 C11          4.6330    -0.0040    -4.5010 ca         1 46B      -0.074500
     11 C10          6.0160     0.0020    -4.3200 ca         1 46B      -0.098800
     12 C2           6.9190     0.0040    -5.4950 cc         1 46B       0.131400
     13 N1           8.1070     0.6280    -5.5790 nc         1 46B      -0.277600
     14 C9           8.6320     0.4100    -6.7740 cd         1 46B      -0.057300
     15 C8           9.8420     0.8320    -7.3630 cd         1 46B      -0.058000
     16 C7          10.1340     0.4510    -8.6350 cc         1 46B      -0.144000
     17 C3           6.6900    -0.6410    -6.6930 cd         1 46B       0.042900
     18 N4           7.7650    -0.3780    -7.4950 na         1 46B       0.017700
     19 C5           8.0730    -0.7530    -8.7760 cd         1 46B      -0.071300
     20 C6           9.2280    -0.3560    -9.3480 cc         1 46B      -0.054900
     21 Br1          9.6320    -0.8850   -11.1180 br         1 46B      -0.093100
     22 N21          5.5740    -1.4110    -7.0230 nu         1 46B      -0.754000
     23 C22          5.6200    -1.8290    -8.4310 c3         1 46B       0.186800
     24 C23          4.3150    -2.5410    -8.7950 c3         1 46B      -0.092400
     25 C24          4.3640    -2.9760   -10.2610 c3         1 46B      -0.084400
     26 C25          3.0590    -3.6860   -10.6250 c3         1 46B      -0.090100
     27 H171         1.8330     0.8850    -1.8740 h1         1 46B       0.027200
     28 H172         1.8340    -0.8840    -1.8740 h1         1 46B       0.027200
     29 H14          6.1160     0.0030    -0.9370 ha         1 46B       0.146000
     30 H12          2.7210    -0.0080    -3.5440 ha         1 46B       0.146000
     31 H15          7.6210     0.0050    -2.8870 ha         1 46B       0.132500
     32 H11          4.2170    -0.0060    -5.5010 ha         1 46B       0.132500
     33 H8          10.5340     1.4520    -6.8060 ha         1 46B       0.160000
     34 H7          11.0610     0.7680    -9.0980 ha         1 46B       0.146000
     35 H5           7.3830    -1.3740    -9.3350 h4         1 46B       0.181000
     36 H121         5.1560    -2.0080    -6.3370 hn         1 46B       0.451800
     37 H221         6.4530    -2.5050    -8.5790 h1         1 46B       0.037200
     38 H222         5.7450    -0.9580    -9.0630 h1         1 46B       0.037200
     39 H231         3.4820    -1.8640    -8.6470 hc         1 46B       0.054700
     40 H232         4.1900    -3.4120    -8.1640 hc         1 46B       0.054700
     41 H241         4.4900    -2.1050   -10.8930 hc         1 46B       0.039200
     42 H242         5.1970    -3.6530   -10.4090 hc         1 46B       0.039200
     43 H251         3.0750    -3.9530   -11.6750 hc         1 46B       0.034700
     44 H252         2.9570    -4.5830   -10.0260 hc         1 46B       0.034700
     45 H253         2.2230    -3.0260   -10.4330 hc         1 46B       0.034700
@<TRIPOS>BOND
     1     1     2 1
     2     2     3 1
     3     2     4 1
     4     4     5 1
     5     5     6 1
     6     6     7 ar
     7     6     9 ar
     8     7     8 ar
     9     8    11 ar
    10     9    10 ar
    11    10    11 ar
    12    11    12 1
    13    12    13 1
    14    12    17 2
    15    13    14 2
    16    14    15 1
    17    14    18 1
    18    15    16 2
    19    16    20 1
    20    17    18 1
    21    17    22 1
    22    18    19 1
    23    19    20 2
    24    20    21 1
    25    22    23 1
    26    23    24 1
    27    24    25 1
    28    25    26 1
    29     4    27 1
    30     4    28 1
    31     7    29 1
    32     9    30 1
    33     8    31 1
    34    10    32 1
    35    15    33 1
    36    16    34 1
    37    19    35 1
    38    22    36 1
    39    23    37 1
    40    23    38 1
    41    24    39 1
    42    24    40 1
    43    25    41 1
    44    25    42 1
    45    26    43 1
    46    26    44 1
    47    26    45 1
@<TRIPOS>SUBSTRUCTURE
     1 46B         1 TEMP              0 ****  ****    0 ROOT
