@<TRIPOS>MOLECULE
molecule
   51    54     1     0     0
SMALL
bcc


@<TRIPOS>ATOM
      1 C4           0.0000     0.0000     0.0000 ca         1 46C      -0.147600
      2 C5           1.3930     0.0000     0.0000 ca         1 46C      -0.049000
      3 C6           2.0750     0.0000     1.1970 ca         1 46C      -0.152000
      4 C10         -2.1700     0.0070     1.1980 cc         1 46C      -0.101400
      5 N12         -2.1150     0.0010    -1.2150 n          1 46C      -0.310000
      6 C13         -0.7700     0.0000    -1.2530 c          1 46C       0.710100
      7 C15         -2.9440     0.0140     2.4550 ca         1 46C      -0.040800
      8 C20         -6.5030    -0.8840     0.4040 c3         1 46C      -0.082100
      9 C26         -2.8590     0.0010    -2.4770 c3         1 46C       0.123300
     10 C1           1.3880     0.0010     2.4040 ca         1 46C       0.054400
     11 C2           0.0080     0.0010     2.4270 ca         1 46C      -0.135000
     12 C3          -0.6990     0.0060     1.2270 ca         1 46C       0.022200
     13 C11         -2.8170     0.0020    -0.0260 cd         1 46C       0.015400
     14 Cl14         2.2730     0.0020     3.8980 cl         1 46C      -0.120400
     15 O16         -0.1900     0.0000    -2.3240 o          1 46C      -0.630500
     16 O18         -4.8280     0.8850    -0.6460 o          1 46C      -0.521100
     17 C19         -5.0050    -1.0900     0.6340 c3         1 46C      -0.185400
     18 C27         -3.1510    -1.4190    -2.8870 ca         1 46C      -0.160300
     19 C30         -4.3660    -1.9950    -2.5600 ca         1 46C      -0.144500
     20 C31         -4.6400    -3.2940    -2.9340 ca         1 46C      -0.106000
     21 C32         -3.6880    -4.0280    -3.6430 ca         1 46C      -0.087600
     22 C33         -2.4640    -3.4410    -3.9700 ca         1 46C      -0.106000
     23 C34         -2.2050    -2.1390    -3.5950 ca         1 46C      -0.144500
     24 C39         -2.8950    -1.0860     3.3150 ca         1 46C      -0.118000
     25 C40         -3.6210    -1.0730     4.4890 ca         1 46C      -0.130500
     26 C41         -4.3970     0.0250     4.8150 ca         1 46C      -0.130000
     27 C42         -4.4500     1.1180     3.9660 ca         1 46C      -0.130500
     28 C43         -3.7250     1.1210     2.7940 ca         1 46C      -0.118000
     29 C49         -3.9740    -5.4210    -4.0460 c          1 46C       0.880200
     30 O50         -5.0390    -5.9300    -3.7590 o          1 46C      -0.833800
     31 O51         -3.0530    -6.1260    -4.7300 o          1 46C      -0.833800
     32 H5           1.9380    -0.0010    -0.9370 ha         1 46C       0.162000
     33 H6           3.1590    -0.0000     1.1970 ha         1 46C       0.143000
     34 H20         -7.0560    -1.6780     0.8910 hc         1 46C       0.041367
     35 H20A        -6.7110    -0.8980    -0.6590 hc         1 46C       0.041367
     36 H20B        -6.8040     0.0710     0.8180 hc         1 46C       0.041367
     37 H26         -3.7910     0.5380    -2.3470 h1         1 46C       0.081200
     38 H26A        -2.2680     0.4840    -3.2450 h1         1 46C       0.081200
     39 H2          -0.5220     0.0020     3.3720 ha         1 46C       0.154000
     40 H19         -4.7960    -1.0620     1.6970 hc         1 46C       0.085200
     41 H19A        -4.7080    -2.0520     0.2330 hc         1 46C       0.085200
     42 H30         -5.1040    -1.4240    -2.0090 ha         1 46C       0.117500
     43 H31         -5.5920    -3.7440    -2.6770 ha         1 46C       0.153000
     44 H33         -1.7210    -4.0050    -4.5230 ha         1 46C       0.153000
     45 H34         -1.2560    -1.6820    -3.8480 ha         1 46C       0.117500
     46 H39         -2.2890    -1.9470     3.0620 ha         1 46C       0.143000
     47 H40         -3.5840    -1.9250     5.1570 ha         1 46C       0.130000
     48 H41         -4.9660     0.0290     5.7360 ha         1 46C       0.126000
     49 H42         -5.0580     1.9760     4.2280 ha         1 46C       0.130000
     50 H43         -3.7690     1.9770     2.1320 ha         1 46C       0.143000
     51 C17         -4.2340     0.0030    -0.0590 c          1 46C       0.583300
@<TRIPOS>BOND
     1     6     1 1   
     2    12     1 ar  
     3     1     2 ar  
     4     2     3 ar  
     5     2    32 1   
     6    10     3 ar  
     7     3    33 1   
     8    13     4 2   
     9     7     4 1   
    10     4    12 1   
    11     9     5 1   
    12    13     5 1   
    13     5     6 1   
    14     6    15 2   
    15    28     7 ar  
    16     7    24 ar  
    17    16    51 2   
    18    51    17 1   
    19    51    13 1   
    20     8    17 1   
    21     8    34 1   
    22     8    35 1   
    23     8    36 1   
    24     9    18 1   
    25     9    37 1   
    26     9    38 1   
    27    11    10 ar  
    28    10    14 1   
    29    12    11 ar  
    30    11    39 1   
    31    17    40 1   
    32    17    41 1   
    33    23    18 ar  
    34    18    19 ar  
    35    19    20 ar  
    36    19    42 1   
    37    21    20 ar  
    38    20    43 1   
    39    22    21 ar  
    40    21    29 1   
    41    23    22 ar  
    42    22    44 1   
    43    23    45 1   
    44    25    24 ar  
    45    24    46 1   
    46    26    25 ar  
    47    25    47 1   
    48    27    26 ar  
    49    26    48 1   
    50    27    28 ar  
    51    27    49 1   
    52    28    50 1   
    53    30    29 1   
    54    29    31 1   
@<TRIPOS>SUBSTRUCTURE
     1 46C         1 TEMP              0 ****  ****    0 ROOT
