@<TRIPOS>MOLECULE
46F
   62    65     1     0     0
SMALL
bcc


@<TRIPOS>ATOM
      1 C1           0.0000     0.0000     0.0000 ca         1 46F      -0.039500
      2 C2          -0.0060     0.0010     2.3960 ca         1 46F      -0.039500
      3 C3           1.3810     0.0000     0.0000 ca         1 46F      -0.178000
      4 C4           1.3770     0.0000     2.4020 ca         1 46F      -0.178000
      5 C5          -6.4530    -0.7270    -2.9160 ca         1 46F      -0.189000
      6 C6          -8.5000    -0.2870    -1.7380 ca         1 46F      -0.189000
      7 C7          -6.2310    -1.8290    -2.1130 ca         1 46F       0.054500
      8 C8          -8.2720    -1.3910    -0.9380 ca         1 46F       0.054500
      9 C9          -4.4910    -3.2390     6.0430 ca         1 46F      -0.199300
     10 C10         -3.9060    -3.7910     7.1710 ca         1 46F      -0.149300
     11 C11         -0.6930     0.0000     1.1960 ca         1 46F      -0.177300
     12 C12          2.0730     0.0000     1.2020 ca         1 46F       0.163100
     13 C13         -7.5880     0.0480    -2.7300 ca         1 46F       0.192100
     14 C14         -7.1400    -2.1610    -1.1250 ca         1 46F      -0.178500
     15 C15         -4.0590    -3.6890     4.7960 ca         1 46F       0.445200
     16 C16         -2.9240    -4.7560     6.9900 ca         1 46F       0.317300
     17 C17         -4.0140    -1.6270     1.1900 c          1 46F       0.558100
     18 C18         -6.0760    -3.3290     3.6300 c3         1 46F       0.127800
     19 C19         -6.6670    -2.5860     2.4270 c3         1 46F       0.217800
     20 C20         -4.0100    -3.7720     2.4400 c3         1 46F       0.132800
     21 C21         -4.5150    -3.0470     1.1890 c3         1 46F       0.130500
     22 C22          4.0790    -0.0010     2.4800 c3         1 46F       0.244700
     23 C23         -2.2000     0.0010     1.1930 c3         1 46F       0.120300
     24 C24         -9.0010     1.8840    -3.2690 c3         1 46F       0.757700
     25 N25         -3.1150    -4.6150     4.7240 nb         1 46F      -0.329000
     26 N26         -2.5760    -5.1230     5.7710 nb         1 46F      -0.237000
     27 N27         -4.6160    -3.1660     3.6330 nh         1 46F      -0.453300
     28 N28         -5.9860    -3.0510     1.2100 n3         1 46F      -0.499500
     29 N29         -2.6880    -1.3810     1.1920 ns         1 46F      -0.190900
     30 O30         -4.8020    -0.7050     1.1880 o          1 46F      -0.651100
     31 O31         -8.1240    -3.9710     0.3870 o          1 46F      -0.589300
     32 O32         -5.9950    -4.4290    -0.8380 o          1 46F      -0.589300
     33 O33          3.4320    -0.0000     1.2050 os         1 46F      -0.306900
     34 F35         -8.9800     2.3700    -1.9580 f          1 46F      -0.194633
     35 F36         -9.0690     2.9580    -4.1630 f          1 46F      -0.194633
     36 F37        -10.1170     1.0600    -3.4440 f          1 46F      -0.194633
     37 S38         -6.8540    -3.5670    -0.1040 sy         1 46F       1.059200
     38 Cl39        -2.1550    -5.4820     8.3670 cl         1 46F      -0.060000
     39 H1          -0.5410    -0.0000    -0.9390 ha         1 46F       0.106000
     40 H2          -0.5510     0.0010     3.3320 ha         1 46F       0.106000
     41 H3           1.9230    -0.0000    -0.9380 ha         1 46F       0.121500
     42 H4           1.9150     0.0010     3.3420 ha         1 46F       0.121500
     43 H5          -5.7410    -0.4670    -3.6890 ha         1 46F       0.129500
     44 H6          -9.3870     0.3160    -1.5900 ha         1 46F       0.129500
     45 H7          -5.3440    -2.4340    -2.2580 ha         1 46F       0.122000
     46 H8          -8.9830    -1.6530    -0.1640 ha         1 46F       0.122000
     47 H9          -5.2620    -2.4820     6.1270 ha         1 46F       0.133000
     48 H10         -4.2040    -3.4780     8.1650 ha         1 46F       0.127000
     49 H18         -6.4870    -2.9170     4.5440 h1         1 46F       0.024700
     50 H18A        -6.3220    -4.3810     3.5590 h1         1 46F       0.024700
     51 H19         -7.7270    -2.7980     2.3540 h1         1 46F       0.046200
     52 H19A        -6.5100    -1.5200     2.5460 h1         1 46F       0.046200
     53 H20         -2.9320    -3.6820     2.4990 h1         1 46F       0.041200
     54 H20A        -4.2870    -4.8180     2.3870 h1         1 46F       0.041200
     55 H21         -4.1630    -3.5630     0.3040 h1         1 46F       0.072700
     56 H22          3.7870     0.8840     3.0330 h1         1 46F      -0.000967
     57 H22A         5.1530    -0.0010     2.3390 h1         1 46F      -0.000967
     58 H22B         3.7870    -0.8850     3.0330 h1         1 46F      -0.000967
     59 H23         -2.5620     0.5120     2.0770 h1         1 46F       0.027700
     60 H23A        -2.5590     0.5110     0.3080 h1         1 46F       0.027700
     61 HN29        -2.0380    -2.1410     1.1440 hn         1 46F       0.181500
     62 O34         -7.8100     1.1330    -3.5180 os         1 46F      -0.316900
@<TRIPOS>BOND
     1     1     3 ar  
     2     1    11 ar  
     3     1    39 1   
     4     2     4 ar  
     5     2    11 ar  
     6     2    40 1   
     7     3    12 ar  
     8     3    41 1   
     9     4    12 ar  
    10     4    42 1   
    11     5     7 ar  
    12     5    13 ar  
    13     5    43 1   
    14     6     8 ar  
    15     6    13 ar  
    16     6    44 1   
    17     7    14 ar  
    18     7    45 1   
    19     8    14 ar  
    20     8    46 1   
    21     9    10 ar  
    22     9    15 ar  
    23     9    47 1   
    24    10    16 ar  
    25    10    48 1   
    26    11    23 1   
    27    12    33 1   
    28    13    62 1   
    29    14    37 1   
    30    15    25 ar  
    31    15    27 1   
    32    16    26 ar  
    33    16    38 1   
    34    17    21 1   
    35    17    29 1   
    36    17    30 2   
    37    18    19 1   
    38    18    27 1   
    39    18    49 1   
    40    18    50 1   
    41    19    28 1   
    42    19    51 1   
    43    19    52 1   
    44    20    21 1   
    45    20    27 1   
    46    20    53 1   
    47    20    54 1   
    48    21    28 1   
    49    21    55 1   
    50    22    33 1   
    51    22    56 1   
    52    22    57 1   
    53    22    58 1   
    54    23    29 1   
    55    23    59 1   
    56    23    60 1   
    57    24    34 1   
    58    24    35 1   
    59    24    36 1   
    60    24    62 1   
    61    25    26 ar  
    62    28    37 1   
    63    29    61 1   
    64    31    37 2   
    65    32    37 2   
@<TRIPOS>SUBSTRUCTURE
     1 46F         1 TEMP              0 ****  ****    0 ROOT
