@<TRIPOS>MOLECULE
46G
   48    52     1     0     0
SMALL
bcc


@<TRIPOS>ATOM
      1 C22         1.0160   -1.7280    3.4910 c3        1 46G     -0.135400
      2 C21         2.3570   -1.7750    2.8830 cc        1 46G      0.325600
      3 C20         3.1660   -0.5960    2.5670 cc        1 46G     -0.336600
      4 N5          3.0450   -2.8800    2.5260 nd        1 46G     -0.347300
      5 O2          4.2060   -2.5270    2.0170 os        1 46G     -0.123100
      6 C7          4.3270   -1.1090    2.0210 cd        1 46G      0.313200
      7 C1          5.5400   -0.5420    1.4970 cd        1 46G     -0.142500
      8 C2          5.6930    0.8810    1.5000 cd        1 46G     -0.153000
      9 C3          6.8410    1.4600    1.0030 cc        1 46G      0.185900
     10 F1          7.0220    2.7940    0.9840 f         1 46G     -0.100900
     11 C5          6.5370   -1.3640    0.9990 cc        1 46G     -0.028300
     12 N1          7.6930   -0.8060    0.5060 na        1 46G     -0.046200
     13 C4          7.8870    0.6110    0.4820 cc        1 46G     -0.112300
     14 N2          9.1210    0.8640   -0.0750 nd        1 46G     -0.049000
     15 N3          9.6820   -0.2720   -0.3900 nd        1 46G     -0.329700
     16 C6          8.8680   -1.3310   -0.0630 cc        1 46G      0.266800
     17 C8          9.1650   -2.8100   -0.2400 c3        1 46G      0.250300
     18 C18        10.2720   -2.9920   -1.2920 c3        1 46G     -0.105100
     19 F2          8.0090   -3.4600   -0.6810 f         1 46G     -0.231300
     20 C9          9.6300   -3.3680    1.0950 ca        1 46G     -0.122300
     21 C14         8.9960   -4.4370    1.6850 ca        1 46G     -0.097000
     22 C13         9.4580   -4.9570    2.9220 ca        1 46G     -0.117300
     23 C17         8.8190   -6.0600    3.5480 ca        1 46G     -0.122000
     24 C16         9.3220   -6.5170    4.7530 ca        1 46G      0.001800
     25 O1          8.6760   -7.5900    5.3280 os        1 46G     -0.316900
     26 C19         9.1970   -8.0440    6.5730 c3        1 46G      0.110700
     27 C15        10.4650   -5.8630    5.3270 ca        1 46G      0.370200
     28 N4         11.0750   -4.8370    4.7650 nb        1 46G     -0.631000
     29 C12        10.5900   -4.3640    3.5610 ca        1 46G      0.372600
     30 C11        11.2270   -3.2520    2.9210 ca        1 46G     -0.151300
     31 C10        10.7570   -2.7740    1.7260 ca        1 46G     -0.119000
     32 H1          1.0740   -1.2140    4.4830 hc        1 46G      0.061367
     33 H2          0.3260   -1.1470    2.8270 hc        1 46G      0.061367
     34 H3          0.5880   -2.7500    3.6430 hc        1 46G      0.061367
     35 H4          2.8820    0.4370    2.7380 ha        1 46G      0.178000
     36 H5          4.8820    1.5070    1.9030 ha        1 46G      0.166000
     37 H6          6.4600   -2.4680    0.9670 h4        1 46G      0.204000
     38 H7         11.2170   -2.5160   -0.9410 hc        1 46G      0.065367
     39 H8         10.4430   -4.0830   -1.4520 hc        1 46G      0.065367
     40 H9          9.9580   -2.5260   -2.2560 hc        1 46G      0.065367
     41 H10         8.1230   -4.9110    1.2080 ha        1 46G      0.150000
     42 H11         7.9450   -6.5350    3.0810 ha        1 46G      0.159000
     43 H12         8.5230   -8.8980    6.8370 h1        1 46G      0.048367
     44 H13        10.2510   -8.3970    6.4540 h1        1 46G      0.048367
     45 H14         9.1350   -7.2390    7.3450 h1        1 46G      0.048367
     46 H15        10.8850   -6.2090    6.2890 h4        1 46G      0.028100
     47 H16        12.1010   -2.7860    3.4050 ha        1 46G      0.156000
     48 H17        11.2520   -1.9170    1.2410 ha        1 46G      0.154000
@<TRIPOS>BOND
     1    1    2 1
     2    1   32 1
     3    1   33 1
     4    1   34 1
     5    2    3 1
     6    2    4 2
     7    3    6 2
     8    3   35 1
     9    4    5 1
    10    5    6 1
    11    6    7 1
    12    7    8 1
    13    7   11 2
    14    8    9 2
    15    8   36 1
    16    9   10 1
    17    9   13 1
    18   11   12 1
    19   11   37 1
    20   12   13 1
    21   12   16 1
    22   13   14 2
    23   14   15 1
    24   15   16 2
    25   16   17 1
    26   17   18 1
    27   17   19 1
    28   17   20 1
    29   18   38 1
    30   18   39 1
    31   18   40 1
    32   20   21 ar
    33   20   31 ar
    34   21   22 ar
    35   21   41 1
    36   22   23 ar
    37   22   29 ar
    38   23   24 ar
    39   23   42 1
    40   24   25 1
    41   24   27 ar
    42   25   26 1
    43   26   43 1
    44   26   44 1
    45   26   45 1
    46   27   28 ar
    47   27   46 1
    48   28   29 ar
    49   29   30 ar
    50   30   31 ar
    51   30   47 1
    52   31   48 1
@<TRIPOS>SUBSTRUCTURE
     1 46G         1 TEMP              0 ****  ****    0 ROOT
