@<TRIPOS>MOLECULE
molecule
   34    35     1     0     0
SMALL
bcc


@<TRIPOS>ATOM
      1 C4           0.0000     0.0000     0.0000 c3         1 46H       0.156800
      2 C5           2.0000     0.0000     1.3690 c3         1 46H       0.172800
      3 C6           3.0670    -2.4070     5.4250 c3         1 46H       0.102500
      4 N1           2.4430    -2.4140     4.0960 n          1 46H      -0.489800
      5 C7           2.2790    -3.3450     6.3450 c3         1 46H      -0.098900
      6 C8           2.1870    -4.7290     5.7000 c3         1 46H      -0.080400
      7 C9           1.4440    -4.6240     4.3650 c3         1 46H      -0.098900
      8 C10          2.2240    -3.7010     3.4230 c3         1 46H       0.102500
      9 O            2.1700    -0.2110     4.1080 o          1 46H      -0.615100
     10 C            2.0750    -1.2590     3.5040 c          1 46H       0.667100
     11 C1           1.5480    -1.2710     2.0930 c3         1 46H      -0.143700
     12 N            1.4690     0.0000     0.0000 n7         1 46H      -0.824200
     13 C3          -0.5110    -1.2710     0.6830 c3         1 46H      -0.078400
     14 C2           0.0180    -1.3210     2.1190 c3         1 46H      -0.072400
     15 H1          -0.3600     0.8680     0.5400 h1         1 46H       0.033200
     16 H2          -0.3600     0.0290    -1.0210 h1         1 46H       0.033200
     17 H3           3.0820     0.0290     1.3350 h1         1 46H       0.047700
     18 H4           1.6260     0.8680     1.8990 h1         1 46H       0.047700
     19 H6           4.0910    -2.7540     5.3460 h1         1 46H       0.056950
     20 H7           1.2810    -2.9490     6.4930 hc         1 46H       0.049950
     21 H8           2.7860    -3.4250     7.2990 hc         1 46H       0.049950
     22 H9           3.1850    -5.1120     5.5260 hc         1 46H       0.043200
     23 H10          1.6470    -5.3980     6.3590 hc         1 46H       0.043200
     24 H11          1.3620    -5.6080     3.9200 hc         1 46H       0.049950
     25 H12          0.4550    -4.2140     4.5340 hc         1 46H       0.049950
     26 H13          3.1790    -4.1520     3.1840 h1         1 46H       0.056950
     27 H14          1.6530    -3.5440     2.5160 h1         1 46H       0.056950
     28 H15          1.9280    -2.1390     1.5670 hc         1 46H       0.071700
     29 H16          1.8030     0.8080    -0.4870 hn         1 46H       0.357800
     30 H18         -0.1590    -2.1390     0.1380 hc         1 46H       0.048700
     31 H19         -1.5940    -1.2610     0.6980 hc         1 46H       0.048700
     32 H20         -0.3610    -0.4710     2.6730 hc         1 46H       0.049700
     33 H21         -0.3050    -2.2410     2.5900 hc         1 46H       0.049700
     34 H5           3.0480    -1.4030     5.8300 h1         1 46H       0.056950
@<TRIPOS>BOND
     1    13    14 1   
     2    13     1 1   
     3    14    11 1   
     4     1    12 1   
     5     3     4 1   
     6     3     5 1   
     7     4     8 1   
     8     4    10 1   
     9     8     7 1   
    10    11    10 1   
    11    11     2 1   
    12    10     9 2   
    13     5     6 1   
    14    12     2 1   
    15     6     7 1   
    16     1    15 1   
    17     1    16 1   
    18     2    17 1   
    19     2    18 1   
    20     3    34 1   
    21     3    19 1   
    22     5    20 1   
    23     5    21 1   
    24     6    22 1   
    25     6    23 1   
    26     7    24 1   
    27     7    25 1   
    28     8    26 1   
    29     8    27 1   
    30    11    28 1   
    31    12    29 1   
    32    13    30 1   
    33    13    31 1   
    34    14    32 1   
    35    14    33 1   
@<TRIPOS>SUBSTRUCTURE
     1 46H         1 TEMP              0 ****  ****    0 ROOT
