@<TRIPOS>MOLECULE
46H
   34    35     1     0     0
SMALL
bcc


@<TRIPOS>ATOM
      1 C4           0.0000     0.0000     0.0000 c3         1 46H       0.145800
      2 C5           2.0000     0.0000     1.3690 c3         1 46H       0.158800
      3 C6           3.0670    -2.4070     5.4250 c3         1 46H       0.043000
      4 N1           2.4430    -2.4140     4.0960 n          1 46H      -0.152800
      5 C7           2.2790    -3.3450     6.3450 c3         1 46H      -0.041400
      6 C8           2.1870    -4.7290     5.7000 c3         1 46H      -0.026400
      7 C9           1.4440    -4.6240     4.3650 c3         1 46H      -0.041400
      8 C10          2.2240    -3.7010     3.4230 c3         1 46H       0.043000
      9 O            2.1700    -0.2110     4.1080 o          1 46H      -0.651100
     10 C            2.0750    -1.2590     3.5040 c          1 46H       0.595100
     11 C1           1.5480    -1.2710     2.0930 c3         1 46H      -0.131700
     12 N            1.4690     0.0000     0.0000 n7         1 46H      -0.585200
     13 C3          -0.5110    -1.2710     0.6830 c3         1 46H      -0.023400
     14 C2           0.0180    -1.3210     2.1190 c3         1 46H      -0.018400
     15 H1          -0.3600     0.8680     0.5400 h1         1 46H       0.006700
     16 H2          -0.3600     0.0290    -1.0210 h1         1 46H       0.006700
     17 H3           3.0820     0.0290     1.3350 h1         1 46H       0.020700
     18 H4           1.6260     0.8680     1.8990 h1         1 46H       0.020700
     19 H6           4.0910    -2.7540     5.3460 h1         1 46H       0.031700
     20 H7           1.2810    -2.9490     6.4930 hc         1 46H       0.021950
     21 H8           2.7860    -3.4250     7.2990 hc         1 46H       0.021950
     22 H9           3.1850    -5.1120     5.5260 hc         1 46H       0.016700
     23 H10          1.6470    -5.3980     6.3590 hc         1 46H       0.016700
     24 H11          1.3620    -5.6080     3.9200 hc         1 46H       0.021950
     25 H12          0.4550    -4.2140     4.5340 hc         1 46H       0.021950
     26 H13          3.1790    -4.1520     3.1840 h1         1 46H       0.031700
     27 H14          1.6530    -3.5440     2.5160 h1         1 46H       0.031700
     28 H15          1.9280    -2.1390     1.5670 hc         1 46H       0.049700
     29 H16          1.8030     0.8080    -0.4870 hn         1 46H       0.253800
     30 H18         -0.1590    -2.1390     0.1380 hc         1 46H       0.018700
     31 H19         -1.5940    -1.2610     0.6980 hc         1 46H       0.018700
     32 H20         -0.3610    -0.4710     2.6730 hc         1 46H       0.021200
     33 H21         -0.3050    -2.2410     2.5900 hc         1 46H       0.021200
     34 H5           3.0480    -1.4030     5.8300 h1         1 46H       0.031700
@<TRIPOS>BOND
     1     1    12 1   
     2     1    13 1   
     3     1    15 1   
     4     1    16 1   
     5     2    11 1   
     6     2    12 1   
     7     2    17 1   
     8     2    18 1   
     9     3     4 1   
    10     3     5 1   
    11     3    19 1   
    12     3    34 1   
    13     4     8 1   
    14     4    10 1   
    15     5     6 1   
    16     5    20 1   
    17     5    21 1   
    18     6     7 1   
    19     6    22 1   
    20     6    23 1   
    21     7     8 1   
    22     7    24 1   
    23     7    25 1   
    24     8    26 1   
    25     8    27 1   
    26     9    10 2   
    27    10    11 1   
    28    11    14 1   
    29    11    28 1   
    30    12    29 1   
    31    13    14 1   
    32    13    30 1   
    33    13    31 1   
    34    14    32 1   
    35    14    33 1   
@<TRIPOS>SUBSTRUCTURE
     1 46H         1 TEMP              0 ****  ****    0 ROOT
