@<TRIPOS>MOLECULE
molecule
   42    45     1     0     0
SMALL
bcc


@<TRIPOS>ATOM
      1 C1           0.0000     0.0000     0.0000 c3         1 46K      -0.172100
      2 N1           2.1810     0.0000     1.1680 ns         1 46K      -0.659300
      3 O1           2.1140    -0.0010    -1.0500 o          1 46K      -0.569100
      4 S1           3.8370    -0.0000     1.1680 sy         1 46K       1.416900
      5 C2           1.5070     0.0000     0.0000 c          1 46K       0.681100
      6 N2           5.5930     5.1290    -1.2250 nu         1 46K      -0.620400
      7 O2           4.2380    -1.0230     0.2660 o          1 46K      -0.617800
      8 S2           5.9810     8.1750     2.5250 ss         1 46K      -0.139100
      9 C3           4.3590     1.5250     0.4570 ca         1 46K      -0.349500
     10 N3           6.8420     8.9650    -2.5020 ns         1 46K      -0.441100
     11 O3           4.2380     0.0350     2.5310 o          1 46K      -0.617800
     12 C4           4.5580     1.6160    -0.9090 ca         1 46K       0.018500
     13 N4           6.6250    10.5560     2.7620 nc         1 46K      -0.562100
     14 O4           6.3570     6.8870    -3.3180 o          1 46K      -0.654500
     15 C5           4.9670     2.8100    -1.4690 ca         1 46K      -0.206000
     16 C6           5.1790     3.9200    -0.6600 ca         1 46K       0.207600
     17 C7           5.8000     6.2160    -0.4300 c2         1 46K       0.195000
     18 C8           6.2040     7.3970    -0.9820 cc         1 46K      -0.289400
     19 C9           6.4650     7.6790    -2.3980 c          1 46K       0.728700
     20 C10          6.8610     9.5890    -1.2600 ca         1 46K       0.054600
     21 C11          7.1810    10.8940    -0.8800 ca         1 46K      -0.141000
     22 C12          7.1230    11.2760     0.4230 ca         1 46K      -0.048000
     23 C13          6.7400    10.3670     1.4330 ca         1 46K       0.096400
     24 C14          6.2540     9.5640     3.4770 cd         1 46K       0.403100
     25 C15          6.4160     9.0580     1.0660 ca         1 46K      -0.013100
     26 C16          6.4770     8.6730    -0.2800 ca         1 46K      -0.045800
     27 C17          4.9770     3.8230     0.7100 ca         1 46K      -0.206000
     28 C18          4.5630     2.6280     1.2650 ca         1 46K       0.018500
     29 HN3          7.0780     9.4160    -3.3630 hn         1 46K       0.342500
     30 H1          -0.3610     0.0020    -1.0210 hc         1 46K       0.068367
     31 H1A         -0.3610    -0.8850     0.5090 hc         1 46K       0.068367
     32 H1B         -0.3610     0.8840     0.5120 hc         1 46K       0.068367
     33 HN1          1.6800    -0.0380     2.0340 hn         1 46K       0.346500
     34 H4           4.3930     0.7500    -1.5390 ha         1 46K       0.164000
     35 H5           5.1230     2.8810    -2.5390 ha         1 46K       0.144000
     36 H7           5.6430     6.1430     0.6390 h4         1 46K       0.168000
     37 H11          7.4800    11.6110    -1.6340 ha         1 46K       0.139000
     38 H12          7.3760    12.2950     0.6910 ha         1 46K       0.151000
     39 H14          6.1290     9.6010     4.5530 h5         1 46K       0.070800
     40 H17          5.1370     4.6880     1.3440 ha         1 46K       0.144000
     41 H18          4.4050     2.5530     2.3340 ha         1 46K       0.164000
     42 HN2          5.7370     5.1970    -2.2130 hn         1 46K       0.490800
@<TRIPOS>BOND
     1     1    31 1
     2     1     5 1
     3     2    33 1
     4     4     2 1
     5     4    11 2
     6     5     2 1
     7     5     3 2
     8     6    17 1
     9     7     4 2
    10     8    24 1
    11     9     4 1
    12     9    28 ar
    13    10    20 1
    14    12     9 ar
    15    13    24 2
    16    14    19 2
    17    15    12 ar
    18    15    16 ar
    19    16     6 1
    20    16    27 ar
    21    17    18 2
    22    17    36 1
    23    18    26 1
    24    19    10 1
    25    19    18 1
    26    20    26 ar
    27    20    21 ar
    28    21    22 ar
    29    22    23 ar
    30    22    38 1
    31    23    13 1
    32    24    39 1
    33    25     8 1
    34    25    23 ar
    35    26    25 ar
    36    27    40 1
    37    28    27 ar
    38    28    41 1
    39    29    10 1
    40    30     1 1
    41    32     1 1
    42    34    12 1
    43    35    15 1
    44    37    21 1
    45     6    42 1
@<TRIPOS>SUBSTRUCTURE
     1 46K         1 TEMP              0 ****  ****    0 ROOT
