@<TRIPOS>MOLECULE
46L
   21    21     1     0     0
SMALL
bcc


@<TRIPOS>ATOM
      1 C4           0.0000     0.0000     0.0000 ca         1 46L      -0.009000
      2 C5           1.4040     0.0000     0.0000 ca         1 46L      -0.271900
      3 C6           2.1520     0.0010    -1.2700 c          1 46L       0.986200
      4 N1           1.4140    -0.0010     2.3560 nb         1 46L      -0.687000
      5 C7           2.0810     0.0000     1.2200 ca         1 46L       0.463200
      6 O1           1.5530     0.0020    -2.3280 o          1 46L      -0.890300
      7 O            3.4990     0.0010    -1.2590 o          1 46L      -0.890300
      8 C3          -0.6530     0.0050     1.2020 ca         1 46L      -0.336300
      9 C2           0.0880     0.0100     2.3820 ca         1 46L       0.503200
     10 N           -0.5690     0.0080     3.6010 nh         1 46L      -0.514300
     11 C1          -2.0300    -0.0900     3.6440 c3         1 46L       0.223100
     12 C            0.1960     0.1060     4.8460 c3         1 46L       0.223100
     13 H1          -0.5540    -0.0040    -0.9310 ha         1 46L       0.118000
     14 H2           3.1650    -0.0040     1.2330 h4         1 46L       0.004100
     15 H4          -1.7350     0.0100     1.2360 ha         1 46L       0.103000
     16 H5          -2.4650     0.7710     3.1520 h1         1 46L      -0.004300
     17 H6          -2.3470    -0.9940     3.1370 h1         1 46L      -0.004300
     18 H7          -2.3600    -0.1210     4.6760 h1         1 46L      -0.004300
     19 H8           0.8640    -0.7430     4.9270 h1         1 46L      -0.004300
     20 H9           0.7740     1.0220     4.8440 h1         1 46L      -0.004300
     21 H10         -0.4850     0.1110     5.6890 h1         1 46L      -0.004300
@<TRIPOS>BOND
     1     1     2 ar  
     2     1     8 ar  
     3     1    13 1   
     4     2     3 1   
     5     2     5 ar  
     6     3     6 1   
     7     3     7 1   
     8     4     5 ar  
     9     4     9 ar  
    10     5    14 1   
    11     8     9 ar  
    12     8    15 1   
    13     9    10 1   
    14    10    11 1   
    15    10    12 1   
    16    11    16 1   
    17    11    17 1   
    18    11    18 1   
    19    12    19 1   
    20    12    20 1   
    21    12    21 1   
@<TRIPOS>SUBSTRUCTURE
     1 46L         1 TEMP              0 ****  ****    0 ROOT
