@<TRIPOS>MOLECULE
46O
   30    32     1     0     0
SMALL
bcc


@<TRIPOS>ATOM
      1 C2           0.0000     0.0000     0.0000 ca         1 46O       0.068100
      2 C4           2.0800    -0.0030    -1.2030 ca         1 46O      -0.101000
      3 C5           1.3860    -0.0110    -2.3990 ca         1 46O      -0.091300
      4 C6           0.0050    -0.0130    -2.3990 ca         1 46O      -0.077000
      5 C11          2.1930    -1.4470    -4.2910 c3         1 46O      -0.025400
      6 C10          2.3950    -1.1590    -5.8030 c3         1 46O      -0.044400
      7 C9           1.5600     0.1190    -6.0270 c3         1 46O       0.145800
      8 N            1.4150     0.7820    -4.7180 n7         1 46O      -0.581200
      9 C8           2.1390    -0.0140    -3.7040 c3         1 46O       0.180800
     10 C3           1.3910     0.0000     0.0000 ca         1 46O       0.065100
     11 O            2.0870     0.0000     1.1700 os         1 46O      -0.302900
     12 C7          -0.6890    -0.0080    -1.2040 ca         1 46O      -0.108000
     13 O1          -0.6960     0.0130     1.1690 os         1 46O      -0.299900
     14 C1           0.0240    -0.3560     2.3510 c3         1 46O       0.167400
     15 C            1.3680     0.3840     2.3460 c3         1 46O       0.170400
     16 H1           3.1630    -0.0020    -1.2060 ha         1 46O       0.115000
     17 H2          -0.5360    -0.0180    -3.3380 ha         1 46O       0.125000
     18 H3           3.0350    -1.9970    -3.8880 hc         1 46O       0.027200
     19 H4           1.2600    -1.9700    -4.1190 hc         1 46O       0.027200
     20 H5           3.4400    -0.9750    -6.0190 hc         1 46O       0.018700
     21 H6           2.0100    -1.9760    -6.4010 hc         1 46O       0.018700
     22 H7           2.0740     0.7770    -6.7170 h1         1 46O       0.011700
     23 H8           0.5840    -0.1430    -6.4170 h1         1 46O       0.011700
     24 H9           1.8080     1.7010    -4.7640 hn         1 46O       0.251800
     25 H11          3.1410     0.3740    -3.5690 h1         1 46O       0.015700
     26 H12         -1.7720    -0.0100    -1.2070 ha         1 46O       0.115000
     27 H13         -0.5450    -0.0700     3.2270 h1         1 46O       0.023700
     28 H14          0.1970    -1.4250     2.3530 h1         1 46O       0.023700
     29 H15          1.9370     0.0880     3.2200 h1         1 46O       0.025200
     30 H16          1.1840     1.4510     2.3150 h1         1 46O       0.025200
@<TRIPOS>BOND
     1     1    10 ar  
     2     1    12 ar  
     3     1    13 1   
     4     2     3 ar  
     5     2    10 ar  
     6     2    16 1   
     7     3     4 ar  
     8     3     9 1   
     9     4    12 ar  
    10     4    17 1   
    11     5     6 1   
    12     5     9 1   
    13     5    18 1   
    14     5    19 1   
    15     6     7 1   
    16     6    20 1   
    17     6    21 1   
    18     7     8 1   
    19     7    22 1   
    20     7    23 1   
    21     8     9 1   
    22     8    24 1   
    23     9    25 1   
    24    10    11 1   
    25    11    15 1   
    26    12    26 1   
    27    13    14 1   
    28    14    15 1   
    29    14    27 1   
    30    14    28 1   
    31    15    29 1   
    32    15    30 1   
@<TRIPOS>SUBSTRUCTURE
     1 46O         1 TEMP              0 ****  ****    0 ROOT
