@<TRIPOS>MOLECULE
molecule
   23    24     1     0     0
SMALL
bcc


@<TRIPOS>ATOM
      1 C4           0.0000     0.0000     0.0000 cc         1 46P       0.496000
      2 C5           1.7590     0.0000     1.2650 cc         1 46P       0.313200
      3 C6           0.6930     0.0020     2.0890 cd         1 46P      -0.268600
      4 N2           1.3170     0.0000     0.0000 nc         1 46P      -0.685000
      5 N3          -0.4290     0.0050     1.2970 na         1 46P      -0.185900
      6 C2          -2.6290     0.0070    -2.9080 cc         1 46P       0.709300
      7 N           -1.4120     0.0050    -3.3640 nd         1 46P      -0.694000
      8 S           -2.6230     0.0100    -1.1980 ss         1 46P      -0.269300
      9 C3          -0.8610     0.0010    -1.1930 cc         1 46P      -0.178900
     10 C1          -0.4410     0.0010    -2.4770 cd         1 46P       0.423600
     11 C            1.0160    -0.0020    -2.8610 c3         1 46P      -0.112400
     12 H1           2.7980    -0.0010     1.5730 h4         1 46P       0.042100
     13 H2           0.7170     0.0040     3.1720 h4         1 46P       0.174000
     14 H3          -4.1830     0.8800    -3.9670 hn         1 46P       0.444800
     15 H4          -4.1850    -0.8540    -3.9750 hn         1 46P       0.444800
     16 H5          -1.8420     0.0150     2.8390 h1         1 46P       0.058033
     17 H6          -2.3270    -0.8700     1.3860 h1         1 46P       0.058033
     18 H7          -2.3190     0.8990     1.3830 h1         1 46P       0.058033
     19 H8           1.1050    -0.0030    -3.9410 hc         1 46P       0.059700
     20 H9           1.4970     0.8820    -2.4600 hc         1 46P       0.059700
     21 H10          1.4940    -0.8870    -2.4580 hc         1 46P       0.059700
     22 C7          -1.8200     0.0120     1.7560 c3         1 46P       0.027600
     23 N1          -3.7680     0.0120    -3.6930 nv         1 46P      -1.031500
@<TRIPOS>BOND
     1     2     4 1
     2     2     3 2
     3     4     1 2
     4     8     9 1
     5     8     6 1
     6     3     5 1
     7     1     9 1
     8     1     5 1
     9     9    10 2
    10     5    22 1
    11     6    23 1
    12     6     7 2
    13    10     7 1
    14    10    11 1
    15     2    12 1
    16     3    13 1
    17    23    14 1
    18    23    15 1
    19    22    16 1
    20    22    17 1
    21    22    18 1
    22    11    19 1
    23    11    20 1
    24    11    21 1
@<TRIPOS>SUBSTRUCTURE
     1 46P         1 TEMP              0 ****  ****    0 ROOT
