@<TRIPOS>MOLECULE
46P
   23    24     1     0     0
SMALL
bcc


@<TRIPOS>ATOM
      1 C4           0.0000     0.0000     0.0000 cc         1 46P       0.305000
      2 C5           1.7590     0.0000     1.2650 cd         1 46P       0.325200
      3 C6           0.6930     0.0020     2.0890 cc         1 46P      -0.425600
      4 N2           1.3170     0.0000     0.0000 nd         1 46P      -0.611000
      5 N3          -0.4290     0.0050     1.2970 na         1 46P       0.297100
      6 C2          -2.6290     0.0070    -2.9080 cc         1 46P       0.543300
      7 N           -1.4120     0.0050    -3.3640 nd         1 46P      -0.555000
      8 S           -2.6230     0.0100    -1.1980 ss         1 46P      -0.379300
      9 C3          -0.8610     0.0010    -1.1930 cc         1 46P      -0.127900
     10 C1          -0.4410     0.0010    -2.4770 cd         1 46P       0.365600
     11 C            1.0160    -0.0020    -2.8610 c3         1 46P      -0.020400
     12 H1           2.7980    -0.0010     1.5730 h4         1 46P       0.003100
     13 H2           0.7170     0.0040     3.1720 h4         1 46P       0.153000
     14 H3          -4.1830     0.8800    -3.9670 hn         1 46P       0.275800
     15 H4          -4.1850    -0.8540    -3.9750 hn         1 46P       0.275800
     16 H5          -1.8420     0.0150     2.8390 h1         1 46P       0.032700
     17 H6          -2.3270    -0.8700     1.3860 h1         1 46P       0.032700
     18 H7          -2.3190     0.8990     1.3830 h1         1 46P       0.032700
     19 H8           1.1050    -0.0030    -3.9410 hc         1 46P       0.022367
     20 H9           1.4970     0.8820    -2.4600 hc         1 46P       0.022367
     21 H10          1.4940    -0.8870    -2.4580 hc         1 46P       0.022367
     22 C7          -1.8200     0.0120     1.7560 c3         1 46P      -0.029400
     23 N1          -3.7680     0.0120    -3.6930 nv         1 46P      -0.561500
@<TRIPOS>BOND
     1     1     4 2   
     2     1     5 1   
     3     1     9 1   
     4     2     3 2   
     5     2     4 1   
     6     2    12 1   
     7     3     5 1   
     8     3    13 1   
     9     5    22 1   
    10     6     7 2   
    11     6     8 1   
    12     6    23 1   
    13     7    10 1   
    14     8     9 1   
    15     9    10 2   
    16    10    11 1   
    17    11    19 1   
    18    11    20 1   
    19    11    21 1   
    20    14    23 1   
    21    15    23 1   
    22    16    22 1   
    23    17    22 1   
    24    18    22 1   
@<TRIPOS>SUBSTRUCTURE
     1 46P         1 TEMP              0 ****  ****    0 ROOT
