@<TRIPOS>MOLECULE
molecule
   33    33     1     0     0
SMALL
bcc


@<TRIPOS>ATOM
      1 C4           1.5300     0.0000     0.0000 c3         1 46Q       0.105800
      2 C5          -0.0190     1.1880     2.1110 c3         1 46Q       0.111300
      3 C6          -0.5010     1.1170     3.5620 c3         1 46Q       0.141900
      4 N1          -0.4900     0.0000     1.3850 n3         1 46Q      -0.762600
      5 C7          -2.4200    -0.1450     2.8840 c3         1 46Q       0.141900
      6 C8          -1.9570    -0.0880     1.4250 c3         1 46Q       0.111300
      7 N            2.0190    -1.1990     0.6930 nz         1 46Q      -0.806600
      8 C2           0.0000     0.0000     0.0000 c3         1 46Q       0.138200
      9 C3          -0.5100     1.2490    -0.7210 c3         1 46Q      -0.121100
     10 C1          -0.5100    -1.2490    -0.7220 c3         1 46Q      -0.092400
     11 C           -0.0000    -1.2490    -2.1640 c3         1 46Q      -0.103100
     12 O           -1.9260     1.0020     3.5800 os         1 46Q      -0.398600
     13 H1           1.8910     0.8850     0.5110 hx         1 46Q       0.111200
     14 H2           1.8910    -0.0000    -1.0210 hx         1 46Q       0.111200
     15 H3           1.0640     1.2170     2.0920 h1         1 46Q       0.053200
     16 H4          -0.4180     2.0790     1.6420 h1         1 46Q       0.053200
     17 H5          -0.0630     0.2520     4.0460 h1         1 46Q       0.065200
     18 H6          -0.2050     2.0190     4.0850 h1         1 46Q       0.065200
     19 H8          -2.0340    -1.0440     3.3500 h1         1 46Q       0.065200
     20 H9          -3.5030    -0.1500     2.9180 h1         1 46Q       0.065200
     21 H10         -2.2780    -0.9850     0.9100 h1         1 46Q       0.053200
     22 H11         -2.3830     0.7840     0.9460 h1         1 46Q       0.053200
     23 H12          1.2830    -1.5880     1.2480 hn         1 46Q       0.460133
     24 H13          2.3210    -1.8750     0.0180 hn         1 46Q       0.460133
     25 H15         -0.4540     2.1000    -0.0530 hc         1 46Q       0.065033
     26 H16         -1.5380     1.0960    -1.0260 hc         1 46Q       0.065033
     27 H17          0.1020     1.4360    -1.5950 hc         1 46Q       0.065033
     28 H18         -1.5940    -1.2490    -0.7220 hc         1 46Q       0.059200
     29 H19         -0.1500    -2.1340    -0.2110 hc         1 46Q       0.059200
     30 H20         -0.4920    -2.0370    -2.7210 hc         1 46Q       0.048033
     31 H21         -0.2170    -0.2930    -2.6230 hc         1 46Q       0.048033
     32 H22          1.0700    -1.4180    -2.1680 hc         1 46Q       0.048033
     33 HN3          2.7660    -0.9470     1.3100 hn         1 46Q       0.460133
@<TRIPOS>BOND
     1    12     3 1   
     2    12     5 1   
     3     3     2 1   
     4     2     4 1   
     5     5     6 1   
     6     6     4 1   
     7     9     8 1   
     8     4     8 1   
     9     1     8 1   
    10     1     7 1   
    11     8    10 1   
    12    10    11 1   
    13     1    13 1   
    14     1    14 1   
    15     2    15 1   
    16     2    16 1   
    17     3    17 1   
    18     3    18 1   
    19     5    19 1   
    20     5    20 1   
    21     6    21 1   
    22     6    22 1   
    23     7    23 1   
    24     7    24 1   
    25     9    25 1   
    26     9    26 1   
    27     9    27 1   
    28    10    28 1   
    29    10    29 1   
    30    11    30 1   
    31    11    31 1   
    32    11    32 1   
    33    33     7 1   
@<TRIPOS>SUBSTRUCTURE
     1 46Q         1 TEMP              0 ****  ****    0 ROOT
