@<TRIPOS>MOLECULE
molecule
   31    32     1     0     0
SMALL
bcc


@<TRIPOS>ATOM
      1 C4           0.0000     0.0000     0.0000 ca         1 46S       0.707900
      2 N1           1.3180     0.0000     0.0000 nb         1 46S      -0.768000
      3 N2          -0.8140    -0.0040     3.4750 nh         1 46S      -0.702300
      4 C1           2.0010     0.0000     1.1360 ca         1 46S       0.480600
      5 N           -0.6940     0.0010     1.1200 nb         1 46S      -0.798000
      6 C3          -0.0800    -0.0040     2.3000 ca         1 46S       0.655200
      7 C2           1.3160     0.0010     2.3340 ca         1 46S      -0.404600
      8 H1          -0.5270     0.0020    -0.9470 h5         1 46S       0.058100
      9 H12          3.8750    -0.8750     1.6420 hc         1 46S       0.056367
     10 H13          3.8580    -0.0190     0.0950 hc         1 46S       0.056367
     11 H14          3.8740     0.8940     1.6100 hc         1 46S       0.056367
     12 H15          1.8480     0.0010     3.2780 ha         1 46S       0.150000
     13 C7          -2.1860     0.0040     3.2090 c3         1 46S       0.177300
     14 C5          -3.0170     0.2320     4.4910 c3         1 46S      -0.085900
     15 C8          -3.0680    -1.0510     5.2790 c3         1 46S      -0.082900
     16 C9          -1.9500    -1.1420     6.3370 c3         1 46S      -0.082900
     17 C10         -0.6050    -0.6290     5.7980 c3         1 46S      -0.085900
     18 C11         -0.3640    -1.0800     4.3800 c3         1 46S       0.177300
     19 H2          -2.4030     0.7970     2.5040 h1         1 46S       0.050700
     20 H3          -2.4650    -0.9490     2.7740 h1         1 46S       0.050700
     21 H4          -2.5520     1.0060     5.0900 hc         1 46S       0.053450
     22 H5          -4.0230     0.5310     4.2210 hc         1 46S       0.053450
     23 H6          -4.0270    -1.1160     5.7780 hc         1 46S       0.040200
     24 H7          -2.9670    -1.8850     4.5940 hc         1 46S       0.040200
     25 H8          -2.2330    -0.5480     7.1980 hc         1 46S       0.040200
     26 H9          -1.8360    -2.1760     6.6390 hc         1 46S       0.040200
     27 H10          0.1930    -1.0050     6.4270 hc         1 46S       0.053450
     28 H11         -0.6040     0.4540     5.8280 hc         1 46S       0.053450
     29 H16          0.6930    -1.2650     4.2300 h1         1 46S       0.050700
     30 H17         -0.9310    -1.9830     4.1830 h1         1 46S       0.050700
     31 C            3.5080    -0.0000     1.1200 c3         1 46S      -0.144400
@<TRIPOS>BOND
     1    31     4 1   
     2     4     7 ar  
     3     4     2 ar  
     4     7     6 ar  
     5     2     1 ar  
     6     6     3 1   
     7     6     5 ar  
     8     1     5 ar  
     9     1     8 1   
    10    31     9 1   
    11    31    10 1   
    12    31    11 1   
    13     7    12 1   
    14     3    13 1   
    15    13    14 1   
    16    14    15 1   
    17    15    16 1   
    18    16    17 1   
    19    17    18 1   
    20    18     3 1   
    21    13    19 1   
    22    13    20 1   
    23    14    21 1   
    24    14    22 1   
    25    15    23 1   
    26    15    24 1   
    27    16    25 1   
    28    16    26 1   
    29    17    27 1   
    30    17    28 1   
    31    18    29 1   
    32    18    30 1   
@<TRIPOS>SUBSTRUCTURE
     1 46S         1 TEMP              0 ****  ****    0 ROOT
