@<TRIPOS>MOLECULE
molecule
   35    35     1     0     0
SMALL
bcc


@<TRIPOS>ATOM
      1 C4           0.0000     0.0000     0.0000 ce         1 46T      -0.255600
      2 C5           1.3320     0.0000     0.0000 ce         1 46T      -0.092000
      3 C6           2.2480     0.0000     1.0890 ce         1 46T      -0.139000
      4 C7           2.1260    -0.1030     2.3750 c2         1 46T      -0.133200
      5 C8           0.8840    -0.3860     3.1540 c3         1 46T      -0.142500
      6 C9          -0.3230     0.2380     2.5270 ce         1 46T       0.390000
      7 C10         -0.3570     1.8040     4.3290 c3         1 46T       0.103500
      8 C11         -0.3860     3.3250     4.1640 c3         1 46T      -0.082600
      9 C12         -1.1500     1.4120     5.5770 c3         1 46T      -0.082600
     10 C3          -0.7950    -0.2060     1.2030 ce         1 46T       0.418300
     11 N           -1.9580    -0.7950     1.1060 n2         1 46T      -0.563900
     12 C1          -2.3790    -1.3790    -0.1710 c3         1 46T       0.102500
     13 C2          -2.5350    -2.8930    -0.0120 c3         1 46T      -0.079600
     14 C           -3.7180    -0.7690    -0.5920 c3         1 46T      -0.079600
     15 H1          -0.5160     0.1630    -0.9380 ha         1 46T       0.145000
     16 H2           1.7890    -0.0000    -0.9820 ha         1 46T       0.118000
     17 H3           3.2780     0.1100     0.7720 ha         1 46T       0.112000
     18 H4           3.0320     0.0330     2.9530 ha         1 46T       0.121000
     19 H5           0.7390    -1.4580     3.2050 hc         1 46T       0.074700
     20 H6           1.0020     0.0070     4.1570 hc         1 46T       0.074700
     21 H7           0.6600     1.4800     4.5090 h1         1 46T       0.032700
     22 H8           0.0670     3.7910     5.0310 hc         1 46T       0.040700
     23 H9           0.1670     3.6030     3.2750 hc         1 46T       0.040700
     24 H10         -1.4120     3.6590     4.0690 hc         1 46T       0.040700
     25 H11         -1.2070     0.3320     5.6440 hc         1 46T       0.040700
     26 H12         -2.1500     1.8230     5.5140 hc         1 46T       0.040700
     27 H13         -0.6540     1.8020     6.4570 hc         1 46T       0.040700
     28 H14         -1.6330    -1.1700    -0.9270 h1         1 46T       0.032700
     29 H15         -3.2750    -3.1010     0.7510 hc         1 46T       0.041367
     30 H16         -2.8550    -3.3230    -0.9530 hc         1 46T       0.041367
     31 H17         -1.5850    -3.3250     0.2790 hc         1 46T       0.041367
     32 H18         -4.4700    -0.9980     0.1530 hc         1 46T       0.041367
     33 H19         -3.6130     0.3050    -0.6820 hc         1 46T       0.041367
     34 H20         -4.0190    -1.1840    -1.5470 hc         1 46T       0.041367
     35 N1          -0.9560     1.1730     3.1500 n2         1 46T      -0.564900
@<TRIPOS>BOND
     1     3     2 1   
     2     3     4 2   
     3     2     1 2   
     4     4     5 1   
     5     1    10 1   
     6    14    12 1   
     7     5     6 1   
     8    10     6 1   
     9    10    11 2   
    10     6    35 2   
    11    12    11 1   
    12    12    13 1   
    13    35     7 1   
    14     7     8 1   
    15     7     9 1   
    16     1    15 1   
    17     2    16 1   
    18     3    17 1   
    19     4    18 1   
    20     5    19 1   
    21     5    20 1   
    22     7    21 1   
    23     8    22 1   
    24     8    23 1   
    25     8    24 1   
    26     9    25 1   
    27     9    26 1   
    28     9    27 1   
    29    12    28 1   
    30    13    29 1   
    31    13    30 1   
    32    13    31 1   
    33    14    32 1   
    34    14    33 1   
    35    14    34 1   
@<TRIPOS>SUBSTRUCTURE
     1 46T         1 TEMP              0 ****  ****    0 ROOT
