@<TRIPOS>MOLECULE
46T
   35    35     1     0     0
SMALL
bcc


@<TRIPOS>ATOM
      1 C4           0.0000     0.0000     0.0000 ce         1 46T      -0.228600
      2 C5           1.3320     0.0000     0.0000 cf         1 46T      -0.058000
      3 C6           2.2480     0.0000     1.0890 cf         1 46T      -0.115000
      4 C7           2.1260    -0.1030     2.3750 c2         1 46T      -0.112200
      5 C8           0.8840    -0.3860     3.1540 c3         1 46T      -0.067500
      6 C9          -0.3230     0.2380     2.5270 ce         1 46T       0.341000
      7 C10         -0.3570     1.8040     4.3290 c3         1 46T       0.096500
      8 C11         -0.3860     3.3250     4.1640 c3         1 46T       0.007900
      9 C12         -1.1500     1.4120     5.5770 c3         1 46T       0.007900
     10 C3          -0.7950    -0.2060     1.2030 ce         1 46T       0.381300
     11 N           -1.9580    -0.7950     1.1060 n2         1 46T      -0.490900
     12 C1          -2.3790    -1.3790    -0.1710 c3         1 46T       0.096500
     13 C2          -2.5350    -2.8930    -0.0120 c3         1 46T       0.011400
     14 C           -3.7180    -0.7690    -0.5920 c3         1 46T       0.011400
     15 H1          -0.5160     0.1630    -0.9380 ha         1 46T       0.122000
     16 H2           1.7890    -0.0000    -0.9820 ha         1 46T       0.089000
     17 H3           3.2780     0.1100     0.7720 ha         1 46T       0.086000
     18 H4           3.0320     0.0330     2.9530 ha         1 46T       0.095000
     19 H5           0.7390    -1.4580     3.2050 hc         1 46T       0.044700
     20 H6           1.0020     0.0070     4.1570 hc         1 46T       0.044700
     21 H7           0.6600     1.4800     4.5090 h1         1 46T       0.018700
     22 H8          -1.4120     3.6590     4.0700 hc         1 46T       0.007533
     23 H9           0.1670     3.6030     3.2740 hc         1 46T       0.007533
     24 H10          0.0670     3.7910     5.0310 hc         1 46T       0.007533
     25 H11         -0.6530     1.8020     6.4570 hc         1 46T       0.007533
     26 H12         -2.1500     1.8240     5.5140 hc         1 46T       0.007533
     27 H13         -1.2080     0.3320     5.6430 hc         1 46T       0.007533
     28 H14         -1.6330    -1.1700    -0.9270 h1         1 46T       0.016700
     29 H15         -2.8550    -3.3230    -0.9530 hc         1 46T       0.007367
     30 H16         -3.2750    -3.1010     0.7510 hc         1 46T       0.007367
     31 H17         -1.5850    -3.3250     0.2790 hc         1 46T       0.007367
     32 H18         -4.0190    -1.1840    -1.5470 hc         1 46T       0.007367
     33 H19         -4.4700    -0.9970     0.1540 hc         1 46T       0.007367
     34 H20         -3.6130     0.3050    -0.6830 hc         1 46T       0.007367
     35 N1          -0.9560     1.1730     3.1500 n2         1 46T      -0.486900
@<TRIPOS>BOND
     1     1     2 2   
     2     1    10 1   
     3     1    15 1   
     4     2     3 1   
     5     2    16 1   
     6     3     4 2   
     7     3    17 1   
     8     4     5 1   
     9     4    18 1   
    10     5     6 1   
    11     5    19 1   
    12     5    20 1   
    13     6    10 1   
    14     6    35 2   
    15     7     8 1   
    16     7     9 1   
    17     7    21 1   
    18     7    35 1   
    19     8    22 1   
    20     8    23 1   
    21     8    24 1   
    22     9    25 1   
    23     9    26 1   
    24     9    27 1   
    25    10    11 2   
    26    11    12 1   
    27    12    13 1   
    28    12    14 1   
    29    12    28 1   
    30    13    29 1   
    31    13    30 1   
    32    13    31 1   
    33    14    32 1   
    34    14    33 1   
    35    14    34 1   
@<TRIPOS>SUBSTRUCTURE
     1 46T         1 TEMP              0 ****  ****    0 ROOT
