@<TRIPOS>MOLECULE
46V
   21    21     1     0     0
SMALL
bcc


@<TRIPOS>ATOM
      1 C4           0.0000     0.0000     0.0000 ca         1 46V      -0.073000
      2 C5           1.3840     0.0000     0.0000 ca         1 46V       0.048100
      3 C6           2.0780     0.0000     1.1970 ca         1 46V      -0.080000
      4 C7           1.3910     0.0010     2.3960 ca         1 46V      -0.040600
      5 Cl           2.2630     0.0000     3.8980 cl         1 46V      -0.022400
      6 Br           2.3270    -0.0000    -1.6390 br         1 46V      -0.119100
      7 C3          -0.6920     0.0060     1.1960 ca         1 46V      -0.046000
      8 C2           0.0020     0.0010     2.3990 ca         1 46V      -0.109400
      9 C1          -1.7630    -0.8010     3.7800 cs         1 46V       0.257400
     10 S           -2.1770    -1.9350     2.5660 s          1 46V      -0.708400
     11 N           -2.5030    -0.7180     4.9030 ns         1 46V      -0.050900
     12 C           -3.6600    -1.5960     5.0860 c3         1 46V       0.056300
     13 H1          -0.5410     0.0020    -0.9380 ha         1 46V       0.124000
     14 H2           3.1610    -0.0000     1.1940 ha         1 46V       0.129000
     15 H3          -0.3840     0.5850     4.3660 hn         1 46V       0.157500
     16 H4          -1.7750     0.0060     1.1950 ha         1 46V       0.154000
     17 H5          -2.2610    -0.0540     5.6130 hn         1 46V       0.154500
     18 H6          -3.3350    -2.6290     5.0750 h1         1 46V       0.031033
     19 H7          -4.1340    -1.3770     6.0350 h1         1 46V       0.031033
     20 H8          -4.3680    -1.4320     4.2820 h1         1 46V       0.031033
     21 N1          -0.6980     0.0070     3.6110 ns         1 46V       0.075900
@<TRIPOS>BOND
     1     1     2 ar  
     2     1     7 ar  
     3     1    13 1   
     4     2     3 ar  
     5     2     6 1   
     6     3     4 ar  
     7     3    14 1   
     8     4     5 1   
     9     4     8 ar  
    10     7     8 ar  
    11     7    16 1   
    12     8    21 1   
    13     9    10 2   
    14     9    11 1   
    15     9    21 1   
    16    11    12 1   
    17    11    17 1   
    18    12    18 1   
    19    12    19 1   
    20    12    20 1   
    21    15    21 1   
@<TRIPOS>SUBSTRUCTURE
     1 46V         1 TEMP              0 ****  ****    0 ROOT
