@<TRIPOS>MOLECULE
molecule
   21    21     1     0     0
SMALL
bcc


@<TRIPOS>ATOM
      1 C4           0.0000     0.0000     0.0000 ca         1 46V      -0.095000
      2 C5           1.3840     0.0000     0.0000 ca         1 46V      -0.012900
      3 C6           2.0780     0.0000     1.1970 ca         1 46V      -0.094000
      4 C7           1.3910     0.0010     2.3960 ca         1 46V       0.010400
      5 Cl           2.2630     0.0000     3.8980 cl         1 46V      -0.105400
      6 Br           2.3270    -0.0000    -1.6390 br         1 46V      -0.083100
      7 C3          -0.6920     0.0060     1.1960 ca         1 46V      -0.078000
      8 C2           0.0020     0.0010     2.3990 ca         1 46V       0.065600
      9 C1          -1.7630    -0.8010     3.7800 cs         1 46V       0.600400
     10 S           -2.1770    -1.9350     2.5660 s          1 46V      -0.681400
     11 N           -2.5030    -0.7180     4.9030 ns         1 46V      -0.515900
     12 C           -3.6600    -1.5960     5.0860 c3         1 46V       0.104300
     13 H1          -0.5410     0.0020    -0.9380 ha         1 46V       0.155000
     14 H2           3.1610    -0.0000     1.1940 ha         1 46V       0.159000
     15 H3          -0.3840     0.5850     4.3660 hn         1 46V       0.327500
     16 H4          -1.7750     0.0060     1.1950 ha         1 46V       0.178000
     17 H5          -2.2610    -0.0540     5.6130 hn         1 46V       0.310500
     18 H6          -3.3350    -2.6290     5.0750 h1         1 46V       0.059367
     19 H7          -4.1340    -1.3770     6.0350 h1         1 46V       0.059367
     20 H8          -4.3680    -1.4320     4.2820 h1         1 46V       0.059367
     21 N1          -0.6980     0.0070     3.6110 ns         1 46V      -0.425100
@<TRIPOS>BOND
     1     7     1 ar  
     2     7     8 ar  
     3     1     2 ar  
     4    21     8 1   
     5    21     9 1   
     6    10     9 2   
     7     8     4 ar  
     8     2     6 1   
     9     2     3 ar  
    10     9    11 1   
    11     4     3 ar  
    12     4     5 1   
    13    11    12 1   
    14     1    13 1   
    15     3    14 1   
    16    21    15 1   
    17     7    16 1   
    18    11    17 1   
    19    12    18 1   
    20    12    19 1   
    21    12    20 1   
@<TRIPOS>SUBSTRUCTURE
     1 46V         1 TEMP              0 ****  ****    0 ROOT
