@<TRIPOS>MOLECULE
molecule
   26    26     1     0     0
SMALL
bcc


@<TRIPOS>ATOM
      1 C4           0.0000     0.0000     0.0000 c3         1 46W      -0.095400
      2 C5           1.5320     0.0000     0.0000 c3         1 46W       0.226800
      3 C6          -2.0350    -1.2030     0.8080 c3         1 46W      -0.088100
      4 N1           3.2410     1.9310     1.0410 n2         1 46W      -0.796100
      5 N2           2.0050     0.0000     1.3910 nh         1 46W      -0.765600
      6 C            2.8940     0.9530     1.8300 c2         1 46W       0.696100
      7 N            3.4170     0.8730     3.0990 nz         1 46W      -0.805600
      8 C3          -0.5060    -1.1780     0.8350 c3         1 46W      -0.076700
      9 C2          -0.0230    -1.0270     2.2800 c3         1 46W      -0.095400
     10 C1           1.5080    -1.0380     2.3050 c3         1 46W       0.226800
     11 H1          -0.3600    -0.0980    -1.0170 hc         1 46W       0.068700
     12 H2          -0.3600     0.9270     0.4290 hc         1 46W       0.068700
     13 H3           1.8940     0.8870    -0.5060 h1         1 46W       0.064200
     14 H4           1.8940    -0.8870    -0.5060 h1         1 46W       0.064200
     15 H5          -2.4190    -0.2770     1.2210 hc         1 46W       0.048033
     16 H6          -2.3940    -2.0370     1.3990 hc         1 46W       0.048033
     17 H7          -2.3770    -1.3110    -0.2140 hc         1 46W       0.048033
     18 H8           3.8890     2.6250     1.3590 hn         1 46W       0.435400
     19 H9           4.1550     1.5420     3.1980 hn         1 46W       0.466133
     20 H10          2.6990     1.0680     3.7690 hn         1 46W       0.466133
     21 H11         -0.1190    -2.1020     0.4220 hc         1 46W       0.061700
     22 H12         -0.4000    -1.8510     2.8740 hc         1 46W       0.068700
     23 H13         -0.3840    -0.0880     2.6840 hc         1 46W       0.068700
     24 H14          1.8550    -0.8300     3.3110 h1         1 46W       0.064200
     25 H15          1.8690    -2.0070     1.9830 h1         1 46W       0.064200
     26 HN3          3.7980    -0.0400     3.2460 hn         1 46W       0.466133
@<TRIPOS>BOND
     1     4     6 2
     2     6     7 1
     3     6     5 1
     4     1     2 1
     5     1     8 1
     6     5     2 1
     7     5    10 1
     8     3     8 1
     9     9     8 1
    10     9    10 1
    11     1    11 1
    12     1    12 1
    13     2    13 1
    14     2    14 1
    15     3    15 1
    16     3    16 1
    17     3    17 1
    18     4    18 1
    19     7    19 1
    20     7    20 1
    21     8    21 1
    22     9    22 1
    23     9    23 1
    24    10    24 1
    25    10    25 1
    26    26     7 1
@<TRIPOS>SUBSTRUCTURE
     1 46W         1 TEMP              0 ****  ****    0 ROOT
