@<TRIPOS>MOLECULE
46W
   26    26     1     0     0
SMALL
bcc


@<TRIPOS>ATOM
      1 C4           0.0000     0.0000     0.0000 c3         1 46W      -0.038400
      2 C5           1.5320     0.0000     0.0000 c3         1 46W       0.175800
      3 C6          -2.0350    -1.2030     0.8080 c3         1 46W       0.011900
      4 N1           3.2410     1.9310     1.0410 n2         1 46W      -0.643100
      5 N2           2.0050     0.0000     1.3910 nh         1 46W      -0.462600
      6 C            2.8940     0.9530     1.8300 c2         1 46W       0.270100
      7 N            3.4170     0.8730     3.0990 nz         1 46W       0.187400
      8 C3          -0.5060    -1.1780     0.8350 c3         1 46W      -0.053700
      9 C2          -0.0230    -1.0270     2.2800 c3         1 46W      -0.038400
     10 C1           1.5080    -1.0380     2.3050 c3         1 46W       0.175800
     11 H1          -0.3600    -0.0980    -1.0170 hc         1 46W       0.038450
     12 H2          -0.3600     0.9270     0.4290 hc         1 46W       0.038450
     13 H3           1.8940     0.8870    -0.5060 h1         1 46W       0.027450
     14 H4           1.8940    -0.8870    -0.5060 h1         1 46W       0.027450
     15 H5          -2.3770    -1.3110    -0.2140 hc         1 46W       0.015033
     16 H6          -2.4190    -0.2770     1.2210 hc         1 46W       0.015033
     17 H7          -2.3940    -2.0370     1.3990 hc         1 46W       0.015033
     18 H8           2.8620     1.9900     0.1170 hn         1 46W       0.389400
     19 H9           2.6930     1.0420     3.7690 hn         1 46W       0.225467
     20 H10          4.1370     1.5600     3.2060 hn         1 46W       0.225467
     21 H11         -0.1190    -2.1020     0.4220 hc         1 46W       0.038700
     22 H12         -0.3840    -0.0880     2.6840 hc         1 46W       0.038450
     23 H13         -0.4000    -1.8510     2.8740 hc         1 46W       0.038450
     24 H14          1.8690    -2.0070     1.9830 h1         1 46W       0.027450
     25 H15          1.8550    -0.8300     3.3110 h1         1 46W       0.027450
     26 HN3          3.7930    -0.0420     3.2480 hn         1 46W       0.225467
@<TRIPOS>BOND
     1     1     2 1   
     2     1     8 1   
     3     1    11 1   
     4     1    12 1   
     5     2     5 1   
     6     2    13 1   
     7     2    14 1   
     8     3     8 1   
     9     3    15 1   
    10     3    16 1   
    11     3    17 1   
    12     4     6 2   
    13     4    18 1   
    14     5     6 1   
    15     5    10 1   
    16     6     7 1   
    17     7    19 1   
    18     7    20 1   
    19     7    26 1   
    20     8     9 1   
    21     8    21 1   
    22     9    10 1   
    23     9    22 1   
    24     9    23 1   
    25    10    24 1   
    26    10    25 1   
@<TRIPOS>SUBSTRUCTURE
     1 46W         1 TEMP              0 ****  ****    0 ROOT
