@<TRIPOS>MOLECULE
46X
   24    27     1     0     0
SMALL
bcc


@<TRIPOS>ATOM
      1 C4           0.0000     0.0000     0.0000 c3         1 46X      -0.273000
      2 C5           2.7930     1.1100    -1.7820 c2         1 46X      -0.131000
      3 C6           3.2800    -0.0420    -2.4810 c1         1 46X      -0.028000
      4 N1           1.7570     2.4000    -0.3220 na         1 46X       0.276000
      5 C7           3.0480     2.4670    -2.1100 c2         1 46X       0.001000
      6 N2           1.4800     0.0000     0.0000 nh         1 46X      -0.023000
      7 N3           3.6840    -0.9520    -3.0260 n1         1 46X      -0.093000
      8 N4           3.8230     2.9210    -3.1780 nv         1 46X       0.024000
      9 N            2.4280     3.2190    -1.2370 n2         1 46X      -0.283000
     10 C            1.9740     1.1120    -0.6560 c2         1 46X      -0.116000
     11 C3          -0.4510    -0.6290     1.3310 DU         1 46X      -0.202000
     12 C2           0.8580    -0.9530     2.0890 c3         1 46X      -0.356000
     13 C1           1.8850     0.0000     1.4280 DU         1 46X      -0.102000
     14 H1          -0.3290    -0.8490     0.5870 DU         1 46X       0.296000
     15 H2          -0.0860     1.0430     0.2780 h1         1 46X       0.033000
     16 H3           1.3840     2.8850     0.4700 hn         1 46X       0.107000
     17 H4           3.2810     3.6090    -3.6630 hn         1 46X       0.076000
     18 H5           4.7790     2.7300    -3.4030 hn         1 46X       0.076000
     19 H6          -1.3620    -0.0890     1.5580 ha         1 46X       0.118500
     20 H7          -0.7420    -1.6150     1.6710 ha         1 46X       0.118500
     21 H8           1.5440    -0.2200     2.4960 DU         1 46X       0.166000
     22 H9           0.8310    -1.9830     2.4220 hc         1 46X       0.151000
     23 H10          1.8670     1.0810     1.4940 ha         1 46X       0.082500
     24 H11          2.8310    -0.5280     1.4450 ha         1 46X       0.082500
@<TRIPOS>BOND
     1     1     6 1   
     2     1    11 1   
     3     1    14 1   
     4     1    15 1   
     5     2     3 1   
     6     2     5 1   
     7     2    10 1   
     8     3     7 1   
     9     4     9 1   
    10     4    10 1   
    11     4    16 1   
    12     5     8 1   
    13     5     9 1   
    14     6    10 1   
    15     6    13 1   
    16     8    17 1   
    17     8    18 1   
    18    11    12 1   
    19    11    14 1   
    20    11    19 1   
    21    11    20 1   
    22    12    13 1   
    23    12    21 1   
    24    12    22 1   
    25    13    21 1   
    26    13    23 1   
    27    13    24 1   
@<TRIPOS>SUBSTRUCTURE
     1 46X         1 TEMP              0 ****  ****    0 ROOT
