@<TRIPOS>MOLECULE
molecule
   24    25     1     0     0
SMALL
bcc


@<TRIPOS>ATOM
      1 C4           0.0000     0.0000     0.0000 c3         1 46X       0.059300
      2 C5           2.7930     1.1100    -1.7820 cc         1 46X      -0.233300
      3 C6           3.2800    -0.0420    -2.4810 cg         1 46X       0.303800
      4 N1           1.7570     2.4000    -0.3220 na         1 46X      -0.068600
      5 C7           3.0480     2.4670    -2.1100 cc         1 46X       0.640200
      6 N2           1.4800     0.0000     0.0000 nh         1 46X      -0.606000
      7 N3           3.6840    -0.9520    -3.0260 n1         1 46X      -0.396800
      8 N4           3.8230     2.9210    -3.1780 nv         1 46X      -1.039500
      9 N            2.4280     3.2190    -1.2370 nd         1 46X      -0.579800
     10 C            1.9740     1.1120    -0.6560 cd         1 46X       0.177300
     11 C3          -0.4510    -0.6290     1.3310 c3         1 46X      -0.265900
     12 C2           0.8580    -0.9530     2.0890 c3         1 46X      -0.265900
     13 C1           1.8850     0.0000     1.4280 c3         1 46X       0.059300
     14 H1          -0.3290    -0.8490     0.5870 h1         1 46X       0.115200
     15 H2          -0.0860     1.0430     0.2780 h1         1 46X       0.115200
     16 H3           1.3840     2.8850     0.4700 hn         1 46X       0.329700
     17 H4           3.2810     3.6090    -3.6630 hn         1 46X       0.446800
     18 H5           4.7790     2.7300    -3.4030 hn         1 46X       0.446800
     19 H6          -1.3620    -0.0890     1.5580 hc         1 46X       0.132950
     20 H7          -0.7420    -1.6150     1.6710 hc         1 46X       0.132950
     21 H8           1.5440    -0.2200     2.4960 hc         1 46X       0.132950
     22 H9           0.8310    -1.9830     2.4220 hc         1 46X       0.132950
     23 H10          1.8670     1.0810     1.4940 h1         1 46X       0.115200
     24 H11          2.8310    -0.5280     1.4450 h1         1 46X       0.115200
@<TRIPOS>BOND
     1     8     5 1
     2     5     9 2
     3     5     2 1
     4     9     4 1
     5     4    10 1
     6     2     3 1
     7     2    10 2
     8     3     7 3
     9    10     6 1
    10     6     1 1
    11     6    13 1
    12     1    11 1
    13    13    12 1
    14    12    11 1
    15     1    14 1
    16     1    15 1
    17     4    16 1
    18     8    17 1
    19     8    18 1
    20    11    19 1
    21    11    20 1
    22    12    21 1
    23    12    22 1
    24    13    23 1
    25    13    24 1
@<TRIPOS>SUBSTRUCTURE
     1 46X         1 TEMP              0 ****  ****    0 ROOT
