@<TRIPOS>MOLECULE
46Y
   42    43     1     0     0
SMALL
bcc


@<TRIPOS>ATOM
      1 C4           0.0000     0.0000     0.0000 ca         1 46Y       0.546200
      2 C5           1.4060     0.0000     0.0000 ca         1 46Y      -0.144300
      3 C6           2.1340     0.0020    -1.2330 cg         1 46Y       0.250800
      4 N2          -0.6880    -0.0010    -1.2000 nu         1 46Y      -0.466900
      5 C14         -0.8670    -0.0190     3.5770 c3         1 46Y      -0.060400
      6 C1           2.0800     0.0000     1.2270 ca         1 46Y       0.001700
      7 C            3.5860     0.0020     1.2800 c3         1 46Y       0.045200
      8 N           -0.6690    -0.0060     1.1430 nb         1 46Y      -0.633000
      9 C3          -0.0520    -0.0130     2.3080 ca         1 46Y       0.460600
     10 C2           1.3300    -0.0010     2.3890 ca         1 46Y      -0.271300
     11 H4          -0.7210     0.7640    -1.8450 hn         1 46Y       0.283800
     12 H6          -0.7780    -0.9400     4.1390 hc         1 46Y       0.015033
     13 H7          -0.5470     0.6060     4.4020 hc         1 46Y       0.015033
     14 H8          -1.9300    -0.0420     3.3690 hc         1 46Y       0.015033
     15 H9           3.9770     0.8860     0.7920 hc         1 46Y       0.023033
     16 H10          3.8650    -0.8670     0.6970 hc         1 46Y       0.023033
     17 H11          3.9230     0.2420     2.2810 hc         1 46Y       0.023033
     18 H12          1.8400     0.3850     3.2630 ha         1 46Y       0.126000
     19 N1           2.7150    -0.0170    -2.2090 n1         1 46Y      -0.390800
     20 C7          -2.1540    -0.0020    -1.2040 c3         1 46Y      -0.074200
     21 C8          -2.6600    -0.0010    -2.6480 c3         1 46Y      -0.095400
     22 C9          -4.1900    -0.0020    -2.6510 c3         1 46Y       0.177800
     23 N3          -4.6760    -0.0030    -4.0380 n3         1 46Y      -0.477600
     24 C11         -6.1250    -0.2420    -4.0890 c3         1 46Y       0.080800
     25 C12         -6.5990    -0.1740    -5.5430 c3         1 46Y       0.204400
     26 O1          -5.8660    -1.1240    -6.3220 os         1 46Y      -0.422600
     27 C15         -4.4510    -0.9200    -6.2960 c3         1 46Y       0.204400
     28 C16         -3.9560    -0.9950    -4.8490 c3         1 46Y       0.080800
     29 H1          -2.4790    -0.5480    -0.3270 h1         1 46Y       0.086700
     30 H2          -2.9130     0.7250    -1.4640 h1         1 46Y       0.086700
     31 H3          -1.8340     0.5220    -3.1150 hc         1 46Y       0.022200
     32 H5          -2.3190    -0.9650    -3.0070 hc         1 46Y       0.022200
     33 H13         -4.1620    -1.0000    -2.2310 h1         1 46Y       0.026700
     34 H14         -4.4660     0.7250    -1.8980 h1         1 46Y       0.026700
     35 H15         -6.6930    -1.0860    -3.7170 h1         1 46Y       0.025200
     36 H16         -6.6820     0.6680    -3.8980 h1         1 46Y       0.025200
     37 H17         -6.3720     0.8610    -5.7720 h1         1 46Y       0.021200
     38 H18         -7.6310    -0.4980    -5.5980 h1         1 46Y       0.021200
     39 H19         -4.3850    -0.0620    -6.9540 h1         1 46Y       0.021200
     40 H20         -3.7780    -1.7170    -6.5890 h1         1 46Y       0.021200
     41 H21         -2.8760    -1.0280    -4.9240 h1         1 46Y       0.025200
     42 H22         -4.0590    -1.8570    -4.2010 h1         1 46Y       0.025200
@<TRIPOS>BOND
     1     1     2 ar  
     2     1     4 1   
     3     1     8 ar  
     4     2     3 1   
     5     2     6 ar  
     6     3    19 3   
     7     4    11 1   
     8     4    20 1   
     9     5     9 1   
    10     5    12 1   
    11     5    13 1   
    12     5    14 1   
    13     6     7 1   
    14     6    10 ar  
    15     7    15 1   
    16     7    16 1   
    17     7    17 1   
    18     8     9 ar  
    19     9    10 ar  
    20    10    18 1   
    21    20    21 1   
    22    20    29 1   
    23    20    30 1   
    24    21    22 1   
    25    21    31 1   
    26    21    32 1   
    27    22    23 1   
    28    22    33 1   
    29    22    34 1   
    30    23    24 1   
    31    23    28 1   
    32    24    25 1   
    33    24    35 1   
    34    24    36 1   
    35    25    26 1   
    36    25    37 1   
    37    25    38 1   
    38    26    27 1   
    39    27    28 1   
    40    27    39 1   
    41    27    40 1   
    42    28    41 1   
    43    28    42 1   
@<TRIPOS>SUBSTRUCTURE
     1 46Y         1 TEMP              0 ****  ****    0 ROOT
