@<TRIPOS>MOLECULE
470
   64    67     1     0     0
SMALL
bcc


@<TRIPOS>ATOM
      1 C1         -0.0030    0.8410    0.4790 c3        1 470     -0.093100
      2 N1          8.8010   -0.2220    3.3320 nh        1 470     -0.730600
      3 C2          1.5040    0.8190    0.5040 c3        1 470     -0.079400
      4 C3          2.0230   -0.2740    1.4170 c3        1 470     -0.051200
      5 C4          3.5030   -0.3140    1.4520 c2        1 470     -0.140200
      6 C5          4.2260   -1.2830    2.0460 ce        1 470     -0.089200
      7 C6          3.5910   -2.4380    2.7480 c3        1 470     -0.039200
      8 C7          3.2810   -3.5900    1.8100 c3        1 470     -0.078400
      9 C8          2.6330   -4.7350    2.5460 c3        1 470     -0.094100
     10 C9          5.6810   -1.2410    2.0520 ce        1 470     -0.049200
     11 C10         6.4880   -0.1860    2.3100 cf        1 470     -0.106400
     12 C11         6.1100    1.1750    2.6610 ca        1 470     -0.039800
     13 C12         5.9400    1.5320    4.0060 ca        1 470     -0.120000
     14 C13         5.5900    2.8370    4.3470 ca        1 470     -0.132500
     15 C14         5.4070    3.7980    3.3530 ca        1 470     -0.130000
     16 C15         5.5750    3.4490    2.0130 ca        1 470     -0.132500
     17 C16         5.9220    2.1440    1.6660 ca        1 470     -0.120000
     18 C17         7.9690   -0.5650    2.1950 c3        1 470      0.267400
     19 C18         8.5490    0.0650    0.8940 c3        1 470     -0.073400
     20 C19         9.3680   -1.0190    0.2180 c3        1 470     -0.077400
     21 C20         8.7700   -2.3530    0.6390 c3        1 470     -0.070400
     22 C21         7.9400   -2.1150    1.8930 c3        1 470     -0.069700
     23 C22         6.4630   -2.4880    1.7420 c3        1 470     -0.048200
     24 C23         8.5120   -0.5840    4.6530 ca        1 470      0.165600
     25 C24         9.3060   -0.0230    5.6900 ca        1 470     -0.196500
     26 C25         9.1340   -0.4210    7.0080 ca        1 470     -0.096000
     27 C26         8.1730   -1.3740    7.3460 ca        1 470     -0.178000
     28 C27         7.3750   -1.9190    6.3440 ca        1 470     -0.096000
     29 C28         7.5290   -1.5310    5.0170 ca        1 470     -0.196500
     30 H1         -0.4120    1.0240    1.5020 hc        1 470      0.033367
     31 H1A        -0.3670    1.6520   -0.1970 hc        1 470      0.033367
     32 H1B        -0.4060   -0.1330    0.1090 hc        1 470      0.033367
     33 H2          1.8970    0.6560   -0.5340 hc        1 470      0.041200
     34 H2A         1.8900    1.8130    0.8530 hc        1 470      0.041200
     35 H3          1.6190   -1.2670    1.0780 hc        1 470      0.051200
     36 H3A         1.6340   -0.1040    2.4600 hc        1 470      0.051200
     37 H4          4.0190    0.5320    0.9650 ha        1 470      0.130000
     38 H6          4.2680   -2.7990    3.5680 hc        1 470      0.047200
     39 H6A         2.6380   -2.0950    3.2370 hc        1 470      0.047200
     40 H7          4.2290   -3.9400    1.3230 hc        1 470      0.041700
     41 H7A         2.6020   -3.2340    0.9910 hc        1 470      0.041700
     42 H8          1.6750   -4.4100    3.0170 hc        1 470      0.033033
     43 H8A         3.3060   -5.1180    3.3500 hc        1 470      0.033033
     44 H8B         2.4140   -5.5730    1.8410 hc        1 470      0.033033
     45 H12         6.0920    0.7730    4.7910 ha        1 470      0.140000
     46 H13         5.4580    3.1080    5.4050 ha        1 470      0.131500
     47 H14         5.1310    4.8270    3.6240 ha        1 470      0.130000
     48 H15         5.4310    4.2040    1.2260 ha        1 470      0.131500
     49 H16         6.0500    1.8730    0.6070 ha        1 470      0.140000
     50 H18         7.6970    0.3740    0.2360 hc        1 470      0.050700
     51 H18A        9.1660    0.9770    1.0880 hc        1 470      0.050700
     52 H19         9.3490   -0.9000   -0.8930 hc        1 470      0.044700
     53 H19A       10.4370   -0.9550    0.5470 hc        1 470      0.044700
     54 H20         8.1400   -2.7710   -0.1870 hc        1 470      0.043200
     55 H20A        9.5810   -3.0970    0.8450 hc        1 470      0.043200
     56 H21         8.3840   -2.6900    2.7470 hc        1 470      0.075700
     57 H22         6.2250   -2.8370    0.7050 hc        1 470      0.057700
     58 H22A        6.1850   -3.3130    2.4480 hc        1 470      0.057700
     59 H24        10.0720    0.7300    5.4520 ha        1 470      0.135500
     60 H25         9.7660    0.0220    7.7930 ha        1 470      0.126500
     61 H26         8.0460   -1.6870    8.3910 ha        1 470      0.129000
     62 H27         6.6070   -2.6650    6.6000 ha        1 470      0.126500
     63 H28         6.8670   -1.9640    4.2510 ha        1 470      0.135500
     64 HN1         9.1870    0.6980    3.2590 hn        1 470      0.404800
@<TRIPOS>BOND
     1    1    3 1
     2    1   30 1
     3    1   31 1
     4    1   32 1
     5    2   18 1
     6    2   24 1
     7    2   64 1
     8    3    4 1
     9    3   33 1
    10    3   34 1
    11    4    5 1
    12    4   35 1
    13    4   36 1
    14    5    6 2
    15    5   37 1
    16    6    7 1
    17    6   10 1
    18    7    8 1
    19    7   38 1
    20    7   39 1
    21    8    9 1
    22    8   40 1
    23    8   41 1
    24    9   42 1
    25    9   43 1
    26    9   44 1
    27   10   11 2
    28   10   23 1
    29   11   12 1
    30   11   18 1
    31   12   13 ar
    32   12   17 ar
    33   13   14 ar
    34   13   45 1
    35   14   15 ar
    36   14   46 1
    37   15   16 ar
    38   15   47 1
    39   16   17 ar
    40   16   48 1
    41   17   49 1
    42   18   19 1
    43   18   22 1
    44   19   20 1
    45   19   50 1
    46   19   51 1
    47   20   21 1
    48   20   52 1
    49   20   53 1
    50   21   22 1
    51   21   54 1
    52   21   55 1
    53   22   23 1
    54   22   56 1
    55   23   57 1
    56   23   58 1
    57   24   25 ar
    58   24   29 ar
    59   25   26 ar
    60   25   59 1
    61   26   27 ar
    62   26   60 1
    63   27   28 ar
    64   27   61 1
    65   28   29 ar
    66   28   62 1
    67   29   63 1
@<TRIPOS>SUBSTRUCTURE
     1 470         1 TEMP              0 ****  ****    0 ROOT
