@<TRIPOS>MOLECULE
471
   83    86     1     0     0
SMALL
bcc


@<TRIPOS>ATOM
      1 N           0.2800   -0.2940   -0.1420 n4        1 471     -0.669800
      2 CA          1.7490   -0.5650   -0.3780 c3        1 471      0.110500
      3 CB          2.5520   -0.4010    0.9400 c3        1 471     -0.030100
      4 CG          2.2150    0.8560    1.6470 ca        1 471     -0.254300
      5 CD1         1.3910    0.8230    2.7880 ca        1 471     -0.087500
      6 CD2         2.7880    2.0710    1.2520 ca        1 471     -0.087500
      7 CE1         1.1180    1.9790    3.4970 ca        1 471     -0.182500
      8 CE2         2.5280    3.2440    1.9500 ca        1 471     -0.182500
      9 CZ          1.6880    3.2070    3.0780 ca        1 471      0.199100
     10 OH          1.3500    4.2850    3.8360 os        1 471     -0.310900
     11 C1A        -0.3350    0.5920   -1.1460 c2        1 471      0.006800
     12 C1F        -1.2520    0.1410   -2.0270 ce        1 471     -0.201200
     13 C1B         0.0310    2.0360   -1.0590 c3        1 471     -0.103900
     14 C1H        -3.1060   -1.5300   -2.4410 ca        1 471     -0.198600
     15 C1I        -3.5090   -2.8580   -2.6750 ca        1 471     -0.060500
     16 C1J        -4.8430   -3.1480   -2.9560 ca        1 471     -0.089500
     17 C1K        -5.7790   -2.1140   -2.9980 ca        1 471     -0.086300
     18 C1N        -7.2540   -2.4330   -3.2880 c3        1 471      0.685200
     19 F1Q        -7.9820   -2.6800   -2.1520 f         1 471     -0.212300
     20 F1P        -7.9200   -1.4210   -3.9290 f         1 471     -0.212300
     21 F1O        -7.4340   -3.5390   -4.0770 f         1 471     -0.212300
     22 C1L        -5.3930   -0.7910   -2.7640 ca        1 471     -0.089500
     23 C1M        -4.0610   -0.4980   -2.4860 ca        1 471     -0.060500
     24 C1G        -1.7060   -1.2670   -2.1460 c         1 471      0.612900
     25 O1G        -0.8500   -2.1690   -1.9860 o         1 471     -0.663100
     26 O3F         2.8450    9.9470    4.6070 os        1 471     -0.369800
     27 C3G         2.8290    9.6340    3.2290 cc        1 471      0.575900
     28 N3H         2.3380    8.4110    3.0040 nd        1 471     -0.693000
     29 C3C         2.0100    7.8840    4.2690 cd        1 471      0.202300
     30 C3D         2.3210    8.8230    5.2510 cc        1 471      0.199700
     31 C3E         2.2150    8.8800    6.7080 c3        1 471     -0.136400
     32 C3I         3.3280   10.6520    2.3220 ca        1 471     -0.151500
     33 C3N         3.8910   11.8320    2.8300 ca        1 471     -0.089000
     34 C3M         4.3670   12.8060    1.9540 ca        1 471     -0.135500
     35 C3L         4.2830   12.6110    0.5750 ca        1 471     -0.098000
     36 C3K         3.7210   11.4380    0.0700 ca        1 471     -0.135500
     37 C3J         3.2430   10.4570    0.9360 ca        1 471     -0.089000
     38 C3A         1.9580    5.5480    3.4770 c3        1 471      0.132400
     39 C3B         1.4020    6.5530    4.4730 c3        1 471     -0.092700
     40 C4A         2.0250   -1.9890   -0.9030 c3        1 471      0.079800
     41 N4B         2.0080   -2.1460   -2.3780 n4        1 471     -0.703800
     42 C4C         2.5500   -3.5210   -2.8380 c         1 471      0.560100
     43 O4C         3.0810   -4.1870   -1.9730 o         1 471     -0.380100
     44 C4D         2.3130   -3.8190   -4.2890 c3        1 471     -0.140400
     45 C4E         3.2680   -4.8900   -4.7670 c3        1 471     -0.112100
     46 HN          0.1960    0.1870    0.7800 hn        1 471      0.479800
     47 HCA         2.1160    0.2230   -1.1030 hx        1 471      0.115700
     48 HB1         3.6420   -0.4030    0.6590 hc        1 471      0.093700
     49 HB2         2.3680   -1.2900    1.6030 hc        1 471      0.093700
     50 HCD1        0.9910   -0.1370    3.1520 ha        1 471      0.134500
     51 HCD2        3.4750    2.1000    0.3910 ha        1 471      0.134500
     52 HCE1        0.4860    1.9640    4.3990 ha        1 471      0.176500
     53 HCE2        3.0020    4.1860    1.6330 ha        1 471      0.176500
     54 HC1F       -1.7090    0.8600   -2.7370 ha        1 471      0.212000
     55 H1B1        0.0420    2.4870   -2.0840 hc        1 471      0.099700
     56 H1B2        1.0330    2.2070   -0.5850 hc        1 471      0.099700
     57 HIB3       -0.7370    2.5810   -0.4480 hc        1 471      0.099700
     58 HC1I       -2.7650   -3.6700   -2.6340 ha        1 471      0.152000
     59 HC1J       -5.1600   -4.1890   -3.1470 ha        1 471      0.186500
     60 HC1L       -6.1460    0.0170   -2.8040 ha        1 471      0.186500
     61 HC1M       -3.7760    0.5480   -2.2960 ha        1 471      0.152000
     62 H3E1        2.1990    7.8440    7.1280 hc        1 471      0.070033
     63 H3E2        1.2700    9.4060    7.0030 hc        1 471      0.070033
     64 H3E3        3.0790    9.4410    7.1450 hc        1 471      0.070033
     65 HC3N        3.9540   11.9860    3.9190 ha        1 471      0.147000
     66 HC3M        4.8080   13.7320    2.3550 ha        1 471      0.143000
     67 HC3L        4.6580   13.3840   -0.1130 ha        1 471      0.145000
     68 HC3K        3.6530   11.2870   -1.0180 ha        1 471      0.143000
     69 HC3J        2.7970    9.5360    0.5320 ha        1 471      0.147000
     70 H3A1        1.6660    5.8060    2.4270 h1        1 471      0.063200
     71 H3A2        3.0710    5.4550    3.5650 h1        1 471      0.063200
     72 H3B1        1.6070    6.2030    5.5200 hc        1 471      0.072200
     73 H3B2        0.2870    6.6220    4.3500 hc        1 471      0.072200
     74 H4A1        1.2950   -2.7410   -0.4760 hx        1 471      0.143700
     75 H4A2        3.0600   -2.2920   -0.5430 hx        1 471      0.143700
     76 HN4B        2.5830   -1.4200   -2.8170 hn        1 471      0.463800
     77 H4D1        2.4310   -2.8940   -4.9160 hc        1 471      0.105700
     78 H4D2        1.2500   -4.1800   -4.3890 hc        1 471      0.105700
     79 H4E1        4.3250   -4.5330   -4.7310 hc        1 471      0.084033
     80 H4E2        3.1810   -5.8130   -4.1430 hc        1 471      0.084033
     81 H4E3        3.0170   -5.1510   -5.8260 hc        1 471      0.084033
     82 HN3        -0.2330   -1.1870   -0.0980 hn        1 471      0.479800
     83 H4B2        1.0430   -2.0580   -2.7300 hn        1 471      0.463800
@<TRIPOS>BOND
     1    1    2 1   
     2    1   11 1   
     3    1   46 1   
     4    1   82 1   
     5    2    3 1   
     6    2   40 1   
     7    2   47 1   
     8    3    4 1   
     9    3   48 1   
    10    3   49 1   
    11    4    5 ar  
    12    4    6 ar  
    13    5    7 ar  
    14    5   50 1   
    15    6    8 ar  
    16    6   51 1   
    17    7    9 ar  
    18    7   52 1   
    19    8    9 ar  
    20    8   53 1   
    21    9   10 1   
    22   10   38 1   
    23   11   12 2   
    24   11   13 1   
    25   12   24 1   
    26   12   54 1   
    27   13   55 1   
    28   13   56 1   
    29   13   57 1   
    30   14   15 ar  
    31   14   23 ar  
    32   14   24 1   
    33   15   16 ar  
    34   15   58 1   
    35   16   17 ar  
    36   16   59 1   
    37   17   18 1   
    38   17   22 ar  
    39   18   19 1   
    40   18   20 1   
    41   18   21 1   
    42   22   23 ar  
    43   22   60 1   
    44   23   61 1   
    45   24   25 2   
    46   26   27 1   
    47   26   30 1   
    48   27   28 2   
    49   27   32 1   
    50   28   29 1   
    51   29   30 2   
    52   29   39 1   
    53   30   31 1   
    54   31   62 1   
    55   31   63 1   
    56   31   64 1   
    57   32   33 ar  
    58   32   37 ar  
    59   33   34 ar  
    60   33   65 1   
    61   34   35 ar  
    62   34   66 1   
    63   35   36 ar  
    64   35   67 1   
    65   36   37 ar  
    66   36   68 1   
    67   37   69 1   
    68   38   39 1   
    69   38   70 1   
    70   38   71 1   
    71   39   72 1   
    72   39   73 1   
    73   40   41 1   
    74   40   74 1   
    75   40   75 1   
    76   41   42 1   
    77   41   76 1   
    78   41   83 1   
    79   42   43 2   
    80   42   44 1   
    81   44   45 1   
    82   44   77 1   
    83   44   78 1   
    84   45   79 1   
    85   45   80 1   
    86   45   81 1   
@<TRIPOS>SUBSTRUCTURE
     1 471         1 TEMP              0 ****  ****    0 ROOT
