@<TRIPOS>MOLECULE
molecule
   44    47     1     0     0
SMALL
bcc


@<TRIPOS>ATOM
      1 C1           0.0000     0.0000     0.0000 c3         1 472       0.078300
      2 N1           1.4650     0.0000     0.0000 n          1 472      -0.436300
      3 O1           1.8600     0.0020     2.2650 o          1 472      -0.491500
      4 C2           2.2330     0.0000     1.1100 c          1 472       0.699500
      5 N2           3.5170    -0.0020    -0.8610 n2         1 472      -0.511900
      6 C3           3.6610    -0.0000     0.6030 c3         1 472       0.145800
      7 N3           1.7390    -0.0110    -2.4050 nz         1 472      -0.726600
      8 C4           2.2470    -0.0090    -1.1280 c2         1 472       0.441800
      9 N4           5.6830     3.4960     1.8940 nb         1 472      -0.660000
     10 C5           4.3800     1.2420     1.0620 ca         1 472      -0.046300
     11 N5           8.8880     3.7770    -1.5140 nb         1 472      -0.658000
     12 C6           3.6990     2.4250     1.2570 ca         1 472      -0.274300
     13 C7           4.4070     3.5740     1.5720 ca         1 472       0.434200
     14 C8           6.3040     2.2950     1.9170 ca         1 472       0.434200
     15 C9           5.7300     1.2110     1.1800 ca         1 472      -0.274300
     16 C10          4.3910    -1.2360     1.0640 ca         1 472      -0.075300
     17 C11          3.6760    -2.3460     1.4840 ca         1 472      -0.147000
     18 C12          4.3440    -3.5070     1.8390 ca         1 472      -0.098000
     19 C13          5.7270    -3.5580     1.7750 ca         1 472      -0.108000
     20 C14          6.4430    -2.4470     1.3560 cp         1 472      -0.062000
     21 C15          5.7750    -1.2860     1.0000 ca         1 472      -0.183000
     22 C16          8.1900     1.7590    -0.4810 cp         1 472      -0.116300
     23 C17          9.2950     1.7680     0.3050 ca         1 472      -0.106000
     24 C18         10.1980     2.7730     0.1890 ca         1 472      -0.210300
     25 C19          9.9900     3.7880    -0.7310 ca         1 472       0.387200
     26 C20          7.9860     2.7750    -1.4000 ca         1 472       0.369200
     27 H1          -0.3610     1.0190    -0.0720 h1         1 472       0.068033
     28 H1A         -0.3610    -0.4470     0.9180 h1         1 472       0.068033
     29 H1B         -0.3610    -0.5720    -0.8460 h1         1 472       0.068033
     30 HN3          1.3240    -0.9020    -2.5980 hn         1 472       0.480467
     31 HN3A         2.4770     0.1610    -3.0590 hn         1 472       0.480467
     32 H6           2.6350     2.4760     1.0640 ha         1 472       0.180500
     33 H7           3.8810     4.5090     1.7270 h4         1 472       0.036600
     34 H8           7.3760     2.3450     2.0590 h4         1 472       0.036600
     35 H9           6.2650     0.2830     1.0230 ha         1 472       0.180500
     36 H11          2.5950    -2.3010     1.5500 ha         1 472       0.131000
     37 H12          3.7840    -4.3750     2.1650 ha         1 472       0.153000
     38 H13          6.2490    -4.4680     2.0440 ha         1 472       0.158000
     39 H15          6.3360    -0.4080     0.7060 ha         1 472       0.208000
     40 H17          9.4720     0.9570     1.0010 ha         1 472       0.166000
     41 H18         11.0960     2.7660     0.7950 ha         1 472       0.160000
     42 H19         10.7110     4.5920    -0.8230 h4         1 472       0.050100
     43 H20          7.4470     3.2950    -2.1830 h4         1 472       0.087100
     44 H33          1.1330     0.7760    -2.5250 hn         1 472       0.480467
@<TRIPOS>BOND
     1     2     1 1
     2     1    27 1
     3     1    28 1
     4     1    29 1
     5     8     2 1
     6     2     4 1
     7     4     3 2
     8     6     4 1
     9     5     8 2
    10     5     6 1
    11    16     6 1
    12     6    10 1
    13     7     8 1
    14     7    30 1
    15     7    31 1
    16    13     9 ar
    17     9    14 ar
    18    12    10 ar
    19    10    15 ar
    20    11    26 ar
    21    11    25 ar
    22    12    13 ar
    23    12    32 1
    24    13    33 1
    25    15    14 ar
    26    14    34 1
    27    15    35 1
    28    21    16 ar
    29    16    17 ar
    30    18    17 ar
    31    17    36 1
    32    19    18 ar
    33    18    37 1
    34    20    19 ar
    35    19    38 1
    36    22    20 1
    37    20    21 ar
    38    21    39 1
    39    26    22 ar
    40    22    23 ar
    41    24    23 ar
    42    23    40 1
    43    25    24 ar
    44    24    41 1
    45    25    42 1
    46    26    43 1
    47    44     7 1
@<TRIPOS>SUBSTRUCTURE
     1 472         1 TEMP              0 ****  ****    0 ROOT
