@<TRIPOS>MOLECULE
472
   44    47     1     0     0
SMALL
bcc


@<TRIPOS>ATOM
      1 C1          0.1190   -0.3940   -0.2480 c3        1 472      0.058300
      2 N1          1.4960   -0.0390   -0.1570 n         1 472     -0.434300
      3 O1          1.7940   -0.0740    2.1590 o         1 472     -0.493500
      4 C2          2.2940   -0.0390    1.0440 c         1 472      0.693500
      5 N2          3.7010    0.0340   -0.9230 n2        1 472     -0.526900
      6 C3          3.7980    0.0420    0.5780 c3        1 472      0.197800
      7 N3          1.9440   -0.0330   -2.6350 n4        1 472     -0.780600
      8 C4          2.4210   -0.0310   -1.2340 c2        1 472      0.477800
      9 N4          5.7490    3.6940    1.8510 nb        1 472     -0.630000
     10 C5          4.4480    1.3290    1.0350 ca        1 472     -0.071300
     11 N5          4.3270   -2.5510    6.6090 nb        1 472     -0.655000
     12 C6          3.8270    2.2110    1.9240 ca        1 472     -0.225800
     13 C7          4.5220    3.3770    2.3020 ca        1 472      0.407200
     14 C8          6.3360    2.8310    0.9990 ca        1 472      0.407200
     15 C9          5.7310    1.6380    0.5630 ca        1 472     -0.225800
     16 C10         4.5700   -1.1490    1.1030 ca        1 472     -0.118300
     17 C11         5.5540   -1.7680    0.3230 ca        1 472     -0.110000
     18 C12         6.2770   -2.8410    0.8440 ca        1 472     -0.124000
     19 C13         6.0390   -3.2950    2.1380 ca        1 472     -0.092000
     20 C14         5.0690   -2.6690    2.9350 cp        1 472     -0.007000
     21 C15         4.3410   -1.5920    2.4100 ca        1 472     -0.105000
     22 C16         4.8240   -3.1230    4.2980 cp        1 472     -0.181300
     23 C17         4.8440   -4.4870    4.6300 ca        1 472     -0.077000
     24 C18         4.6020   -4.8680    5.9490 ca        1 472     -0.241300
     25 C19         4.3480   -3.8660    6.9050 ca        1 472      0.412200
     26 C20         4.5610   -2.1960    5.3340 ca        1 472      0.414200
     27 H1         -0.0190   -1.4180   -0.6890 h1        1 472      0.072367
     28 H1A        -0.3120   -0.3890    0.7940 h1        1 472      0.072367
     29 H1B        -0.4340    0.3620   -0.8690 h1        1 472      0.072367
     30 HN3         1.4420    0.8460   -2.8170 hn        1 472      0.485133
     31 HN3A        2.7480   -0.1100   -3.2760 hn        1 472      0.485133
     32 H6          2.8340    2.0150    2.3520 ha        1 472      0.157000
     33 H7          4.0670    4.0950    3.0110 h4        1 472      0.042600
     34 H8          7.3490    3.1100    0.6520 h4        1 472      0.042600
     35 H9          6.2650    0.9610   -0.1180 ha        1 472      0.157000
     36 H11         5.7890   -1.4160   -0.6920 ha        1 472      0.139000
     37 H12         7.0510   -3.3250    0.2280 ha        1 472      0.150000
     38 H13         6.6220   -4.1360    2.5450 ha        1 472      0.154000
     39 H15         3.5880   -1.0980    3.0480 ha        1 472      0.161000
     40 H17         5.0420   -5.2450    3.8580 ha        1 472      0.141000
     41 H18         4.6100   -5.9260    6.2430 ha        1 472      0.154000
     42 H19         4.1520   -4.1240    7.9620 h4        1 472      0.035100
     43 H20         4.5500   -1.1100    5.1300 h4        1 472      0.025100
     44 H33         1.3110   -0.8310   -2.7770 hn        1 472      0.485133
@<TRIPOS>BOND
     1    1    2 1   
     2    1   27 1   
     3    1   28 1   
     4    1   29 1   
     5    2    4 1   
     6    2    8 1   
     7    3    4 2   
     8    4    6 1   
     9    5    6 1   
    10    5    8 2   
    11    6   10 1   
    12    6   16 1   
    13    7    8 1   
    14    7   30 1   
    15    7   31 1   
    16    7   44 1   
    17    9   13 ar  
    18    9   14 ar  
    19   10   12 ar  
    20   10   15 ar  
    21   11   25 ar  
    22   11   26 ar  
    23   12   13 ar  
    24   12   32 1   
    25   13   33 1   
    26   14   15 ar  
    27   14   34 1   
    28   15   35 1   
    29   16   17 ar  
    30   16   21 ar  
    31   17   18 ar  
    32   17   36 1   
    33   18   19 ar  
    34   18   37 1   
    35   19   20 ar  
    36   19   38 1   
    37   20   21 ar  
    38   20   22 1   
    39   21   39 1   
    40   22   23 ar  
    41   22   26 ar  
    42   23   24 ar  
    43   23   40 1   
    44   24   25 ar  
    45   24   41 1   
    46   25   42 1   
    47   26   43 1   
@<TRIPOS>SUBSTRUCTURE
     1 472         1 TEMP              0 ****  ****    0 ROOT
