@<TRIPOS>MOLECULE
molecule
   63    66     1     0     0
SMALL
bcc


@<TRIPOS>ATOM
      1 C1           1.5300     0.0000     0.0000 c3         1 474      -0.163700
      2 C2           0.0000     0.0000     0.0000 c3         1 474       0.033500
      3 C3          -0.5030     1.2340     0.7040 c          1 474       0.647100
      4 N4          -1.0680     1.1300     1.9240 n          1 474      -0.459800
      5 C5           2.0320     0.0000     1.4210 c          1 474       0.674100
      6 N6          -0.4890    -0.0080    -1.3840 nz         1 474      -0.801600
      7 O7          -0.3990     2.3200     0.1740 o          1 474      -0.585100
      8 O8           1.6670    -0.8610     2.1930 o          1 474      -0.613100
      9 N9           2.8880     0.9560     1.8330 n          1 474      -0.466800
     10 C10          3.4500     0.9030     3.1850 c3         1 474       0.084300
     11 C14          3.2570     2.0490     0.9300 c3         1 474       0.084300
     12 C18         -1.1850    -0.1080     2.7150 c3         1 474       0.015000
     13 C19         -1.3000     0.3690     4.1840 c3         1 474       0.404600
     14 C20         -2.1570     1.6530     4.0290 c3         1 474      -0.134400
     15 C21         -1.6620     2.2370     2.6890 c3         1 474       0.101000
     16 F28         -0.0400     0.6690     4.7140 f          1 474      -0.206800
     17 C29          3.2990    -4.0440     0.0680 c3         1 474      -0.004400
     18 C30          4.0030    -2.9120    -0.6820 c3         1 474      -0.055400
     19 C31          3.5150    -1.5640    -0.1450 c3         1 474      -0.135900
     20 C32          2.0400    -1.2480    -0.7220 c3         1 474      -0.077700
     21 C33          1.0730    -2.3490    -0.2790 c3         1 474      -0.135900
     22 C34          1.7870    -3.9300    -0.1400 c3         1 474      -0.055400
     23 C48          4.9770    -7.6330    -1.1770 cc         1 474       0.014700
     24 C49          4.1880    -6.8730    -2.0590 cc         1 474      -0.099000
     25 C50          3.6800    -5.6800    -1.6400 cd         1 474      -0.110000
     26 C51          3.9500    -5.2300    -0.3390 cd         1 474      -0.155300
     27 C52          4.7110    -5.9750     0.4940 cc         1 474       0.001700
     28 N53          5.2220    -7.1670     0.0840 na         1 474       0.169000
     29 N54          6.0200    -8.1350     0.7110 nc         1 474      -0.598100
     30 C55          6.2110    -9.0980    -0.1600 cd         1 474       0.588200
     31 N56          5.5900    -8.8050    -1.2930 nd         1 474      -0.446300
     32 F62         -1.9590    -0.5820     4.9700 f          1 474      -0.206800
     33 HN61         0.1230     0.5370    -1.9580 hn         1 474       0.463467
     34 HN62        -0.5150    -0.9490    -1.7240 hn         1 474       0.463467
     35 H2          -0.3610    -0.8820     0.5150 hx         1 474       0.146700
     36 H211        -2.4970     2.6560     2.1400 h1         1 474       0.076200
     37 H212        -0.9150     2.9990     2.8740 h1         1 474       0.076200
     38 H201        -1.9620     2.3420     4.8410 hc         1 474       0.096200
     39 H202        -3.2100     1.4040     3.9720 hc         1 474       0.096200
     40 H181        -0.3000    -0.7200     2.5880 h1         1 474       0.092700
     41 H182        -2.0740    -0.6540     2.4270 h1         1 474       0.092700
     42 H1           1.8910     0.8850    -0.5100 hc         1 474       0.090700
     43 H101         3.0390     1.7110     3.7790 h1         1 474       0.057367
     44 H102         4.5270     1.0060     3.1330 h1         1 474       0.057367
     45 H103         3.1990    -0.0460     3.6440 h1         1 474       0.057367
     46 H141         2.3590     2.5250     0.5530 h1         1 474       0.057367
     47 H142         3.8530     2.7760     1.4670 h1         1 474       0.057367
     48 H143         3.8310     1.6540     0.1000 h1         1 474       0.057367
     49 H32          2.0770    -1.2160    -1.8040 hc         1 474       0.065700
     50 H311         3.4540    -1.7410     0.9220 hc         1 474       0.060950
     51 H312         4.1660    -0.7210    -0.3390 hc         1 474       0.060950
     52 H29          3.5220    -3.9690     1.1250 hc         1 474       0.061700
     53 H52          4.8380    -5.6680     1.5250 h4         1 474       0.175000
     54 H55          6.7900    -9.9960     0.0200 h5         1 474       0.099800
     55 H49          3.9860    -7.2320    -3.0610 ha         1 474       0.168000
     56 H50          3.1650    -5.0340    -2.3410 ha         1 474       0.140000
     57 H341         1.5640    -3.9980    -1.1980 hc         1 474       0.058450
     58 H342         1.2890    -4.7310     0.3920 hc         1 474       0.058450
     59 H331         0.0670    -2.0860    -0.5820 hc         1 474       0.060950
     60 H332         1.1170    -2.4540     0.7980 hc         1 474       0.060950
     61 H301         5.0730    -2.9920    -0.5330 hc         1 474       0.058450
     62 H63         -1.3720     0.4630    -1.4290 hn         1 474       0.463467
     63 H302         3.7730    -2.9820    -1.7380 hc         1 474       0.058450
@<TRIPOS>BOND
     1     1     2 1
     2     1    42 1
     3     1     5 1
     4     1    20 1
     5     2     6 1
     6     2    35 1
     7     2     3 1
     8     3     7 2
     9     3     4 1
    10     4    15 1
    11     4    12 1
    12     5     8 2
    13     5     9 1
    14     6    33 1
    15     6    34 1
    16     9    10 1
    17     9    11 1
    18    10    43 1
    19    10    44 1
    20    10    45 1
    21    11    46 1
    22    11    47 1
    23    11    48 1
    24    12    13 1
    25    12    40 1
    26    12    41 1
    27    13    14 1
    28    13    32 1
    29    13    16 1
    30    14    15 1
    31    14    38 1
    32    14    39 1
    33    15    36 1
    34    15    37 1
    35    17    18 1
    36    17    52 1
    37    17    26 1
    38    17    22 1
    39    18    19 1
    40    18    61 1
    41    18    63 1
    42    19    20 1
    43    19    50 1
    44    19    51 1
    45    20    49 1
    46    20    21 1
    47    21    22 1
    48    21    59 1
    49    21    60 1
    50    22    57 1
    51    22    58 1
    52    23    28 1
    53    23    31 2
    54    23    24 1
    55    24    55 1
    56    24    25 2
    57    25    26 1
    58    25    56 1
    59    26    27 2
    60    27    53 1
    61    27    28 1
    62    28    29 1
    63    29    30 2
    64    30    31 1
    65    30    54 1
    66    62     6 1
@<TRIPOS>SUBSTRUCTURE
     1 474         1 TEMP              0 ****  ****    0 ROOT
