@<TRIPOS>MOLECULE
475
   40    41     1     0     0
SMALL
bcc


@<TRIPOS>ATOM
      1 C2           0.0000     0.0000     0.0000 c3         1 475       0.132100
      2 N2          -4.8480    -3.4730     0.8310 ns         1 475      -0.078400
      3 C3           1.5320     0.0000     0.0000 c3         1 475       0.150100
      4 C5           1.4500    -1.2130     2.1800 c3         1 475       0.174100
      5 C4           2.0320     0.0000     1.4490 c3         1 475       0.138100
      6 C10         -6.9450    -4.6370     0.6350 ca         1 475      -0.261300
      7 C11         -8.3270    -4.5970     0.5800 ca         1 475      -0.040000
      8 C12         -8.9580    -3.3630     0.6680 ca         1 475      -0.254300
      9 C13         -8.1940    -2.2200     0.8050 ca         1 475       0.431200
     10 N3          -6.8780    -2.2890     0.8550 nb         1 475      -0.561000
     11 C9          -6.2390    -3.4460     0.7750 ca         1 475       0.353200
     12 C8          -4.1530    -2.3180     0.8630 c          1 475       0.480100
     13 O8          -4.7410    -1.2590     0.9370 o          1 475      -0.577100
     14 O7          -2.0730    -3.4030     0.7360 o          1 475      -0.645100
     15 N1          -1.9660    -1.1890     0.8420 ns         1 475      -0.126900
     16 C1          -0.5020    -1.2130     0.7880 c3         1 475       0.212500
     17 O5           0.0230    -1.1680     2.1160 os         1 475      -0.397600
     18 C6           1.8960    -1.1880     3.6430 c3         1 475       0.225400
     19 O4           3.4590    -0.0730     1.4610 oh         1 475      -0.580800
     20 O3           2.0100     1.1690    -0.6700 oh         1 475      -0.587800
     21 O2          -0.4770    -0.0730    -1.3440 oh         1 475      -0.575800
     22 H2          -0.3600     0.9080     0.4680 h1         1 475       0.021700
     23 HN2         -4.3660    -4.3480     0.8770 hn         1 475       0.190500
     24 H3           1.8930    -0.8870    -0.5060 h1         1 475       0.029700
     25 H5           1.8030    -2.1210     1.7050 h1         1 475       0.035700
     26 HO6          1.8290    -2.4220     5.1610 ho         1 475       0.388000
     27 H4           1.7060     0.9080     1.9420 h1         1 475       0.021700
     28 H11         -8.9040    -5.5070     0.4720 ha         1 475       0.107000
     29 H12        -10.0390    -3.2960     0.6290 ha         1 475       0.114000
     30 H13         -8.6820    -1.2560     0.8740 h4         1 475      -0.018900
     31 HN1         -2.4480    -0.3170     0.9430 hn         1 475       0.191500
     32 H1          -0.1690    -2.1210     0.3000 h2         1 475       0.061700
     33 H6           2.9770    -1.1320     3.6910 h1         1 475      -0.002800
     34 H6A          1.4680    -0.3240     4.1370 h1         1 475      -0.002800
     35 HO4          3.8160     0.7800     1.6440 ho         1 475       0.400000
     36 HO3          2.5530     0.9140    -1.3980 ho         1 475       0.403000
     37 HO2         -0.8320     0.7630    -1.5970 ho         1 475       0.401000
     38 O6           1.4530    -2.3780     4.2970 oh         1 475      -0.579800
     39 C7          -2.6610    -2.3430     0.8090 c          1 475       0.511100
     40 H10         -6.4200    -5.5820     0.5690 ha         1 475       0.117000
@<TRIPOS>BOND
     1     1     3 1   
     2     1    16 1   
     3     1    21 1   
     4     1    22 1   
     5     2    11 1   
     6     2    12 1   
     7     2    23 1   
     8     3     5 1   
     9     3    20 1   
    10     3    24 1   
    11     4     5 1   
    12     4    17 1   
    13     4    18 1   
    14     4    25 1   
    15     5    19 1   
    16     5    27 1   
    17     6     7 ar  
    18     6    11 ar  
    19     6    40 1   
    20     7     8 ar  
    21     7    28 1   
    22     8     9 ar  
    23     8    29 1   
    24     9    10 ar  
    25     9    30 1   
    26    10    11 ar  
    27    12    13 2   
    28    12    39 1   
    29    14    39 2   
    30    15    16 1   
    31    15    31 1   
    32    15    39 1   
    33    16    17 1   
    34    16    32 1   
    35    18    33 1   
    36    18    34 1   
    37    18    38 1   
    38    19    35 1   
    39    20    36 1   
    40    21    37 1   
    41    26    38 1   
@<TRIPOS>SUBSTRUCTURE
     1 475         1 TEMP              0 ****  ****    0 ROOT
