@<TRIPOS>MOLECULE
molecule
   36    36     1     0     0
SMALL
bcc


@<TRIPOS>ATOM
      1 O11          0.0000     0.0000     0.0000 o          1 476      -0.863167
      2 P10          1.4800     0.0000     0.0000 p5         1 476       1.065200
      3 O13          2.0160     0.0000     1.5190 o          1 476      -0.863167
      4 O12          2.0170    -1.3160    -0.7580 o          1 476      -0.863167
      5 C8           2.0880     1.4890    -0.8590 c3         1 476      -0.352100
      6 P9           1.4810     1.4870    -2.5780 p5         1 476       1.065200
      7 O15          2.0310     0.1810    -3.3410 o          1 476      -0.863167
      8 O14          0.0000     1.4720    -2.5790 o          1 476      -0.863167
      9 O16          2.0040     2.8100    -3.3330 o          1 476      -0.863167
     10 C7           1.5770     2.7380    -0.1380 c3         1 476       0.035300
     11 N2           2.1780     2.8120     1.1960 na         1 476       0.076900
     12 C1           3.3920     3.3110     1.3270 ca         1 476      -0.011300
     13 C6           3.9910     3.3970     2.5690 ca         1 476      -0.222300
     14 C5           3.2990     2.9500     3.6850 ca         1 476      -0.124000
     15 C4           2.0260     2.4310     3.5080 ca         1 476      -0.146000
     16 C3           1.4900     2.3820     2.2350 ca         1 476      -0.019300
     17 C17          5.3780     3.9680     2.7090 c3         1 476      -0.005100
     18 C18          5.2870     5.4780     2.9360 c3         1 476      -0.081400
     19 C19          6.6950     6.0590     3.0790 c3         1 476      -0.087400
     20 C20          6.6040     7.5690     3.3050 c3         1 476      -0.091100
     21 H3           3.1710     1.4890    -0.8590 hc         1 476       0.043700
     22 H6           1.8490     3.6190    -0.7060 h1         1 476       0.073700
     23 H7           0.4990     2.6860    -0.0460 h1         1 476       0.073700
     24 H8           3.9260     3.6580     0.4500 h4         1 476       0.170000
     25 H9           3.7430     3.0030     4.6710 ha         1 476       0.093000
     26 H10          1.4560     2.0750     4.3580 ha         1 476       0.119000
     27 H11          0.4950     1.9780     2.0880 h4         1 476       0.212000
     28 H12          5.9420     3.7720     1.8060 hc         1 476       0.037200
     29 H13          5.8750     3.5060     3.5530 hc         1 476       0.037200
     30 H14          4.7890     5.9410     2.0920 hc         1 476       0.041200
     31 H15          4.7220     5.6740     3.8390 hc         1 476       0.041200
     32 H16          7.1930     5.5970     3.9230 hc         1 476       0.034200
     33 H17          7.2600     5.8630     2.1750 hc         1 476       0.034200
     34 H18          7.6010     7.9800     3.4060 hc         1 476       0.022033
     35 H19          6.0400     7.7650     4.2090 hc         1 476       0.022033
     36 H20          6.1070     8.0310     2.4610 hc         1 476       0.022033
@<TRIPOS>BOND
     1    20    19 1   
     2    18    19 1   
     3    18    17 1   
     4    14    15 ar  
     5    14    13 ar  
     6    15    16 ar  
     7    13    17 1   
     8    13    12 ar  
     9    16    11 1   
    10    12    11 2   
    11    11    10 1   
    12    10     5 1   
    13     8     6 1   
    14     5     6 1   
    15     5     2 1   
    16     1     2 1   
    17     6     9 1   
    18     6     7 1   
    19     2     4 1   
    20     2     3 1   
    21     5    21 1   
    22    10    22 1   
    23    10    23 1   
    24    12    24 1   
    25    14    25 1   
    26    15    26 1   
    27    16    27 1   
    28    17    28 1   
    29    17    29 1   
    30    18    30 1   
    31    18    31 1   
    32    19    32 1   
    33    19    33 1   
    34    20    34 1   
    35    20    35 1   
    36    20    36 1   
@<TRIPOS>SUBSTRUCTURE
     1 476         1 TEMP              0 ****  ****    0 ROOT
