@<TRIPOS>MOLECULE
476
   36    36     1     0     0
SMALL
bcc


@<TRIPOS>ATOM
      1 O11        -0.4740    0.7590    0.7800 o         1 476     -0.920000
      2 P10         0.7860    0.1000    0.3260 p5        1 476      2.104000
      3 O13         1.7810    0.4470    1.7270 os        1 476     -0.726000
      4 O12         0.8180   -1.3890    0.3380 o         1 476     -0.920000
      5 C8          1.6810    0.8430   -0.7930 c2        1 476     -1.438000
      6 P9          1.3690    1.4470   -2.9050 p3        1 476      2.561000
      7 O15         0.5020    0.3910   -3.5010 o         1 476     -1.224333
      8 O14         0.7790    2.8200   -2.8130 o         1 476     -1.224333
      9 O16         2.8110    1.4230   -3.3100 o         1 476     -1.224333
     10 C7          2.0740    2.2290   -0.5080 c3        1 476      0.034000
     11 N2          2.6210    2.4920    0.8430 n3        1 476     -0.231000
     12 C1          3.7510    3.1700    1.0490 c2        1 476      0.097000
     13 C6          4.2980    3.4250    2.3110 c2        1 476     -0.430000
     14 C5          3.6660    2.8090    3.4400 c2        1 476     -0.081000
     15 C4          2.5660    2.0460    3.2940 c2        1 476     -0.254000
     16 C3          1.9040    1.7990    1.9550 c3        1 476      0.234000
     17 C17         5.5030    4.2510    2.4750 c3        1 476     -0.023000
     18 C18         5.1930    5.6200    3.0670 c3        1 476     -0.166000
     19 C19         6.4490    6.4410    3.2710 c3        1 476     -0.160000
     20 C20         6.1460    7.7970    3.8560 c3        1 476     -0.203000
     21 H3          2.4950    0.2130   -1.1900 ha        1 476      0.131000
     22 H6          2.8400    2.5930   -1.2580 h1        1 476      0.102000
     23 H7          1.1610    2.8960   -0.5960 h1        1 476      0.102000
     24 H8          4.2480    3.5870    0.1490 h4        1 476      0.110000
     25 H9          4.1210    2.9750    4.4290 ha        1 476      0.053000
     26 H10         2.0970    1.5110    4.1260 ha        1 476      0.098000
     27 H11         0.8610    2.2650    1.9520 h2        1 476      0.089000
     28 H12         6.2380    3.7360    3.1560 hc        1 476      0.035500
     29 H13         6.0190    4.3980    1.4870 hc        1 476      0.035500
     30 H14         4.6670    5.4840    4.0470 hc        1 476      0.077000
     31 H15         4.4910    6.1650    2.3850 hc        1 476      0.077000
     32 H16         7.1520    5.8890    3.9490 hc        1 476      0.062000
     33 H17         6.9750    6.5670    2.2870 hc        1 476      0.062000
     34 H18         7.0830    8.3880    3.9970 hc        1 476      0.054333
     35 H19         5.4650    8.3700    3.1810 hc        1 476      0.054333
     36 H20         5.6440    7.6920    4.8480 hc        1 476      0.054333
@<TRIPOS>BOND
     1    1    2 1   
     2    2    3 1   
     3    2    4 1   
     4    2    5 1   
     5    3   16 1   
     6    5   10 1   
     7    5   21 1   
     8    6    7 1   
     9    6    8 1   
    10    6    9 1   
    11   10   11 1   
    12   10   22 1   
    13   10   23 1   
    14   11   12 1   
    15   11   16 1   
    16   12   13 1   
    17   12   24 1   
    18   13   14 1   
    19   13   17 1   
    20   14   15 1   
    21   14   25 1   
    22   15   16 1   
    23   15   26 1   
    24   16   27 1   
    25   17   18 1   
    26   17   28 1   
    27   17   29 1   
    28   18   19 1   
    29   18   30 1   
    30   18   31 1   
    31   19   20 1   
    32   19   32 1   
    33   19   33 1   
    34   20   34 1   
    35   20   35 1   
    36   20   36 1   
@<TRIPOS>SUBSTRUCTURE
     1 476         1 TEMP              0 ****  ****    0 ROOT
