@<TRIPOS>MOLECULE
molecule
   45    48     1     0     0
SMALL
bcc


@<TRIPOS>ATOM
      1 CAU          0.0000     0.0000     0.0000 c3         1 477      -0.094600
      2 CAT          1.5310     0.0000     0.0000 c3         1 477      -0.090900
      3 CAR          2.0410     0.0000     1.4420 c3         1 477       0.202100
      4 CAW          1.4310     1.1820     2.1990 c3         1 477      -0.090900
      5 CAX          2.0360     1.2550     3.6020 c3         1 477      -0.094600
      6 OAS          1.6630    -1.2200     2.0810 oh         1 477      -0.602800
      7 CAJ          3.5430     0.1240     1.4440 ca         1 477      -0.083300
      8 CAI          4.2730    -0.4470     2.4630 ca         1 477      -0.120000
      9 CAK          4.1770     0.8060     0.4140 ca         1 477      -0.153000
     10 CAL          5.5370     0.9290     0.3970 ca         1 477      -0.078000
     11 CAG          6.2980     0.3630     1.4250 ca         1 477      -0.108800
     12 CAF          7.7290     0.3060     1.7090 cc         1 477      -0.170200
     13 CAH          5.6590    -0.3350     2.4690 ca         1 477      -0.030200
     14 NAE          6.6390    -0.7800     3.3300 na         1 477      -0.166400
     15 CAD          7.8780    -0.3960     2.8650 cc         1 477      -0.003300
     16 CAC          9.1610    -0.6940     3.5190 cc         1 477       0.010900
     17 NAB         10.2230     0.1500     3.6400 na         1 477       0.010400
     18 NAA         11.2400    -0.5190     4.3260 nc         1 477      -0.473800
     19 CAM         10.8220    -1.7510     4.6250 cd         1 477       0.326600
     20 CAQ         11.2820    -2.9660     5.2890 cd         1 477      -0.115300
     21 CAN          9.5150    -1.8920     4.1360 cd         1 477      -0.175400
     22 SAO          8.9150    -3.5030     4.5060 ss         1 477      -0.149800
     23 CAP         10.4100    -3.9510     5.3030 cc         1 477      -0.086400
     24 CAV         10.6640    -5.2980     5.9300 c3         1 477       0.483200
     25 FAZ         11.7640    -5.9010     5.3100 f          1 477      -0.230800
     26 FAY         10.9300    -5.1340     7.2940 f          1 477      -0.230800
     27 H1          -0.3610    -0.3950    -0.9420 hc         1 477       0.039033
     28 H2          -0.3610    -0.6180     0.8130 hc         1 477       0.039033
     29 H3          -0.3610     1.0130     0.1290 hc         1 477       0.039033
     30 H4           1.8920     0.8850    -0.5110 hc         1 477       0.051200
     31 H5           1.8920    -0.8850    -0.5110 hc         1 477       0.051200
     32 H6           1.6430     2.1000     1.6650 hc         1 477       0.051200
     33 H7           0.3590     1.0480     2.2740 hc         1 477       0.051200
     34 H8           3.0260     1.6910     3.5460 hc         1 477       0.039033
     35 H9           2.1030     0.2580     4.0200 hc         1 477       0.039033
     36 H10          1.4070     1.8700     4.2350 hc         1 477       0.039033
     37 H11          1.6160    -1.9100     1.4400 ho         1 477       0.407000
     38 H12          3.7760    -1.0480     3.2150 ha         1 477       0.148000
     39 H13          3.5880     1.2460    -0.3820 ha         1 477       0.134000
     40 H14          6.0240     1.4630    -0.4100 ha         1 477       0.132000
     41 H15          8.5230     0.7380     1.1110 ha         1 477       0.155000
     42 H16          6.4760    -1.3080     4.1640 hn         1 477       0.306700
     43 H17         10.2670     1.0890     3.2970 hn         1 477       0.345700
     44 H18         12.2670    -3.0510     5.7330 ha         1 477       0.170000
     45 H19          9.7900    -5.9250     5.8050 h2         1 477       0.076700
@<TRIPOS>BOND
     1    25    24 1
     2    26    24 1
     3    24    23 1
     4    23    20 2
     5    23    22 1
     6    20    19 1
     7    19    18 2
     8    19    21 1
     9    22    21 1
    10    18    17 1
    11    21    16 2
    12    17    16 1
    13    16    15 1
    14    15    12 2
    15    15    14 1
    16    12    11 1
    17    14    13 1
    18    11    13 ar
    19    11    10 ar
    20    13     8 ar
    21    10     9 ar
    22     8     7 ar
    23     9     7 ar
    24     7     3 1
    25     1     2 1
    26     3     2 1
    27     3     6 1
    28     3     4 1
    29     4     5 1
    30     1    27 1
    31     1    28 1
    32     1    29 1
    33     2    30 1
    34     2    31 1
    35     4    32 1
    36     4    33 1
    37     5    34 1
    38     5    35 1
    39     5    36 1
    40     6    37 1
    41     8    38 1
    42     9    39 1
    43    10    40 1
    44    12    41 1
    45    14    42 1
    46    17    43 1
    47    20    44 1
    48    24    45 1
@<TRIPOS>SUBSTRUCTURE
     1 477         1 TEMP              0 ****  ****    0 ROOT
