@<TRIPOS>MOLECULE
477
   45    48     1     0     0
SMALL
bcc


@<TRIPOS>ATOM
      1 CAU         0.1590   -0.4930   -0.0860 c3        1 477     -0.092600
      2 CAT         1.6060   -0.1000    0.0520 c3        1 477     -0.083400
      3 CAR         2.0460    0.0890    1.5160 c3        1 477      0.197100
      4 CAW         1.3480    1.3080    2.1380 c3        1 477     -0.083400
      5 CAX         1.6920    1.5000    3.5910 c3        1 477     -0.092600
      6 OAS         1.6330   -1.0360    2.2930 oh        1 477     -0.592800
      7 CAJ         3.5510    0.2530    1.5640 ca        1 477     -0.084300
      8 CAI         4.3190   -0.5680    2.3800 ca        1 477     -0.136000
      9 CAK         4.1580    1.2570    0.7720 ca        1 477     -0.149000
     10 CAL         5.5280    1.4520    0.7670 ca        1 477     -0.080000
     11 CAG         6.3330    0.6390    1.5690 ca        1 477     -0.096800
     12 CAF         7.7500    0.5560    1.8140 cc        1 477     -0.166200
     13 CAH         5.7110   -0.3800    2.3840 ca        1 477     -0.032200
     14 NAE         6.7130   -1.0610    3.0750 na        1 477     -0.174400
     15 CAD         7.9480   -0.4760    2.7420 cd        1 477      0.002700
     16 CAC         9.1880   -0.9360    3.3040 cd        1 477     -0.013100
     17 NAB        10.4030   -0.2360    3.1670 na        1 477      0.026400
     18 NAA        11.4380   -0.8190    3.7570 nd        1 477     -0.455800
     19 CAM        10.9450   -1.9540    4.3250 cc        1 477      0.277600
     20 CAQ        11.4300   -3.0610    5.1030 cc        1 477     -0.099300
     21 CAN         9.4940   -2.0800    4.0610 cc        1 477     -0.208400
     22 SAO         8.8920   -3.4680    4.7420 ss        1 477     -0.008800
     23 CAP        10.4110   -3.9300    5.3830 cd        1 477     -0.155400
     24 CAV        10.5390   -5.2050    6.1670 c3        1 477      0.487200
     25 FAZ        11.6890   -5.9080    5.8730 f         1 477     -0.237300
     26 FAY        10.6680   -4.9970    7.5250 f         1 477     -0.237300
     27 H1         -0.0540   -0.8010   -1.1380 hc        1 477      0.039533
     28 H2         -0.0860   -1.3460    0.5940 hc        1 477      0.039533
     29 H3         -0.5130    0.3600    0.1720 hc        1 477      0.039533
     30 H4          1.7920    0.8540   -0.5060 hc        1 477      0.047700
     31 H5          2.2530   -0.8920   -0.4100 hc        1 477      0.047700
     32 H6          0.2400    1.1660    2.0340 hc        1 477      0.047700
     33 H7          1.6430    2.2130    1.5460 hc        1 477      0.047700
     34 H8          1.1510    2.3890    3.9990 hc        1 477      0.039533
     35 H9          1.3970    0.5980    4.1810 hc        1 477      0.039533
     36 H10         2.7900    1.6600    3.7200 hc        1 477      0.039533
     37 H11         1.9380   -1.8240    1.8270 ho        1 477      0.400000
     38 H12         3.8500   -1.3300    3.0190 ha        1 477      0.148000
     39 H13         3.5200    1.9030    0.1500 ha        1 477      0.133000
     40 H14         5.9840    2.2350    0.1440 ha        1 477      0.137000
     41 H15         8.5120    1.1740    1.3520 ha        1 477      0.153000
     42 H16         6.5760   -1.7360    3.7800 hn        1 477      0.305700
     43 H17        10.5190    0.6230    2.6760 hn        1 477      0.331700
     44 H18        12.4730   -3.1740    5.4110 ha        1 477      0.180000
     45 H19         9.6360   -5.8640    5.9720 h2        1 477      0.069700
@<TRIPOS>BOND
     1    1    2 1   
     2    1   27 1   
     3    1   28 1   
     4    1   29 1   
     5    2    3 1   
     6    2   30 1   
     7    2   31 1   
     8    3    4 1   
     9    3    6 1   
    10    3    7 1   
    11    4    5 1   
    12    4   32 1   
    13    4   33 1   
    14    5   34 1   
    15    5   35 1   
    16    5   36 1   
    17    6   37 1   
    18    7    8 ar  
    19    7    9 ar  
    20    8   13 ar  
    21    8   38 1   
    22    9   10 ar  
    23    9   39 1   
    24   10   11 ar  
    25   10   40 1   
    26   11   12 1   
    27   11   13 ar  
    28   12   15 2   
    29   12   41 1   
    30   13   14 1   
    31   14   15 1   
    32   14   42 1   
    33   15   16 1   
    34   16   17 1   
    35   16   21 2   
    36   17   18 1   
    37   17   43 1   
    38   18   19 2   
    39   19   20 1   
    40   19   21 1   
    41   20   23 2   
    42   20   44 1   
    43   21   22 1   
    44   22   23 1   
    45   23   24 1   
    46   24   25 1   
    47   24   26 1   
    48   24   45 1   
@<TRIPOS>SUBSTRUCTURE
     1 477         1 TEMP              0 ****  ****    0 ROOT
