@<TRIPOS>MOLECULE
molecule
   70    72     1     0     0
SMALL
bcc


@<TRIPOS>ATOM
      1 C1           0.0000     0.0000     0.0000 c3         1 478       0.106400
      2 C2           1.9210     0.0000     1.5010 c3         1 478      -0.118400
      3 C3           2.2930     1.1090    -1.9750 c          1 478       0.746100
      4 C4           1.5410     0.0000     0.0000 c3         1 478       0.136100
      5 C5           3.0290     2.0910    -4.0800 c3         1 478       0.115700
      6 C6           4.0860     3.1260    -4.4700 c3         1 478       0.103100
      7 C7           1.7380     2.3630    -4.8530 c3         1 478      -0.049100
      8 C8           0.7380     1.2740    -4.5620 ca         1 478      -0.069300
      9 C9          -0.1410     1.4080    -3.5030 ca         1 478      -0.117000
     10 C10          0.6960     0.1440    -5.3570 ca         1 478      -0.117000
     11 C11         -1.0570     0.4080    -3.2360 ca         1 478      -0.123000
     12 C12         -0.2210    -0.8550    -5.0890 ca         1 478      -0.123000
     13 C13         -1.0960    -0.7250    -4.0270 ca         1 478      -0.126000
     14 C14          4.4520     2.9490    -5.9450 c3         1 478       0.237800
     15 C15          6.8890     3.6430    -5.8150 c3         1 478       0.239800
     16 C16          7.6080     2.6850    -6.7670 c3         1 478      -0.097700
     17 C17          4.5630     6.4560    -6.1780 ca         1 478      -0.364500
     18 C18          5.4300     7.3210    -5.5340 ca         1 478       0.029500
     19 C19          4.9340     8.3080    -4.7050 ca         1 478      -0.237500
     20 C20          3.5630     8.4320    -4.5190 ca         1 478       0.248600
     21 C21          2.6950     7.5620    -5.1680 ca         1 478      -0.237500
     22 C22          3.1990     6.5770    -5.9950 ca         1 478       0.029500
     23 C23          7.7730     3.3530    -8.1330 c3         1 478      -0.087100
     24 C24          8.9860     2.3390    -6.1980 c3         1 478      -0.087100
     25 C25          0.6280    -0.5400     2.1630 c3         1 478       0.125400
     26 N1           2.7660     2.1810    -2.6420 ns         1 478      -0.570900
     27 N2           5.5270     3.8810    -6.2970 n3         1 478      -0.811500
     28 N3           3.0570     9.4290    -3.6820 nv         1 478      -0.913200
     29 O1           2.0500     1.1920    -0.6520 os         1 478      -0.434900
     30 O2           2.0840     0.0690    -2.5670 o          1 478      -0.595000
     31 O3           3.5640     4.4400    -4.2630 oh         1 478      -0.598800
     32 O4           4.1360     4.8280    -8.1020 o          1 478      -0.644800
     33 O5           6.4540     5.6770    -7.7120 o          1 478      -0.644800
     34 O6          -0.4270     0.0490     1.3720 os         1 478      -0.410600
     35 S1           5.2010     5.2030    -7.2390 sy         1 478       1.437200
     36 H11A        -0.3680     0.8700    -0.5300 h1         1 478       0.063700
     37 H12A        -0.3670    -0.9060    -0.4670 h1         1 478       0.063700
     38 H21A         2.7550    -0.6670     1.6860 hc         1 478       0.066700
     39 H22A         2.1370     1.0050     1.8430 hc         1 478       0.066700
     40 H4           1.9180    -0.8930    -0.4830 h1         1 478       0.084700
     41 H5           3.3910     1.0980    -4.3190 h1         1 478       0.087700
     42 H6           4.9700     2.9880    -3.8600 h1         1 478       0.045700
     43 H71          1.9500     2.3840    -5.9150 hc         1 478       0.063700
     44 H72          1.3290     3.3190    -4.5480 hc         1 478       0.063700
     45 H9          -0.1110     2.2950    -2.8830 ha         1 478       0.124000
     46 H10          1.3810     0.0410    -6.1890 ha         1 478       0.124000
     47 H11         -1.7450     0.5110    -2.4050 ha         1 478       0.125000
     48 H12         -0.2530    -1.7420    -5.7110 ha         1 478       0.125000
     49 H13         -1.8150    -1.5080    -3.8180 ha         1 478       0.125000
     50 H141         4.7850     1.9320    -6.1150 h1         1 478       0.076200
     51 H142         3.5830     3.1510    -6.5600 h1         1 478       0.076200
     52 H151         7.4270     4.5820    -5.7730 h1         1 478       0.051700
     53 H152         6.8500     3.2050    -4.8240 h1         1 478       0.051700
     54 H16          7.0250     1.7790    -6.8760 hc         1 478       0.049700
     55 H18          6.4990     7.2230    -5.6790 ha         1 478       0.146000
     56 H19          5.6130     8.9840    -4.2010 ha         1 478       0.133000
     57 H21          1.6250     7.6560    -5.0250 ha         1 478       0.133000
     58 H22          2.5230     5.8980    -6.5010 ha         1 478       0.146000
     59 H231         6.8010     3.4720    -8.5960 hc         1 478       0.039033
     60 H232         8.4010     2.7360    -8.7640 hc         1 478       0.039033
     61 H233         8.2330     4.3260    -8.0060 hc         1 478       0.039033
     62 H241         9.5270     1.7280    -6.9110 hc         1 478       0.039033
     63 H242         9.5390     3.2520    -6.0110 hc         1 478       0.039033
     64 H243         8.8670     1.7920    -5.2710 hc         1 478       0.039033
     65 H251         0.5610    -0.2090     3.1920 h1         1 478       0.054200
     66 H252         0.5920    -1.6210     2.1000 h1         1 478       0.054200
     67 HN1          2.9750     3.0250    -2.1470 hn         1 478       0.316500
     68 HN31         3.6770    10.0990    -3.2710 hn         1 478       0.433300
     69 HN32         2.0760     9.4720    -3.4910 hn         1 478       0.433300
     70 HO3          3.7970     4.7380    -3.3990 ho         1 478       0.404000
@<TRIPOS>BOND
     1     1     4 1
     2     1    34 1
     3     1    36 1
     4     1    37 1
     5     2     4 1
     6     2    25 1
     7     2    38 1
     8     2    39 1
     9     3    26 1
    10     3    29 1
    11     3    30 2
    12     4    29 1
    13     4    40 1
    14     5     6 1
    15     5     7 1
    16     5    26 1
    17     5    41 1
    18     6    14 1
    19     6    31 1
    20     6    42 1
    21     7     8 1
    22     7    43 1
    23     7    44 1
    24     8     9 ar
    25     8    10 ar
    26     9    11 ar
    27     9    45 1
    28    10    12 ar
    29    10    46 1
    30    11    13 ar
    31    11    47 1
    32    12    13 ar
    33    12    48 1
    34    13    49 1
    35    14    27 1
    36    14    50 1
    37    14    51 1
    38    15    16 1
    39    15    27 1
    40    15    52 1
    41    15    53 1
    42    16    23 1
    43    16    24 1
    44    16    54 1
    45    17    18 ar
    46    17    22 ar
    47    17    35 1
    48    18    19 ar
    49    18    55 1
    50    19    20 ar
    51    19    56 1
    52    20    21 ar
    53    20    28 1
    54    21    22 ar
    55    21    57 1
    56    22    58 1
    57    23    59 1
    58    23    60 1
    59    23    61 1
    60    24    62 1
    61    24    63 1
    62    24    64 1
    63    25    34 1
    64    25    65 1
    65    25    66 1
    66    26    67 1
    67    27    35 1
    68    28    68 1
    69    28    69 1
    70    31    70 1
    71    32    35 2
    72    33    35 2
@<TRIPOS>SUBSTRUCTURE
     1 478         1 TEMP              0 ****  ****    0 ROOT
