@<TRIPOS>MOLECULE
molecule
   20    20     1     0     0
SMALL
bcc


@<TRIPOS>ATOM
      1 C4           0.0000     0.0000     0.0000 ca         1 47A      -0.201600
      2 C5           1.3980     0.0000     0.0000 ca         1 47A      -0.064500
      3 C6          -0.7400     0.0010    -1.2710 c          1 47A       0.573700
      4 C7          -2.2470     0.0000    -1.2670 c3         1 47A      -0.008200
      5 Br           2.3430     0.0000     4.0300 br         1 47A      -0.026100
      6 C1           1.3930     0.0000     2.3950 ca         1 47A       0.033100
      7 C2           0.0070    -0.0110     2.4030 ca         1 47A      -0.107000
      8 C3          -0.6920    -0.0060     1.2160 ca         1 47A      -0.064500
      9 C            2.0850     0.0000     1.1950 ca         1 47A      -0.107000
     10 O           -0.1370    -0.0000    -2.3240 o          1 47A      -0.515100
     11 N           -2.7410     0.0010    -2.6500 nz         1 47A      -0.800600
     12 H1           1.9410    -0.0000    -0.9380 ha         1 47A       0.145500
     13 H2          -2.6070     0.8850    -0.7550 hx         1 47A       0.131700
     14 H3          -2.6060    -0.8840    -0.7560 hx         1 47A       0.131700
     15 H4          -0.5280    -0.0150     3.3450 ha         1 47A       0.169000
     16 H5          -1.7760    -0.0100     1.2230 ha         1 47A       0.145500
     17 H6           3.1680     0.0000     1.1960 ha         1 47A       0.169000
     18 H7          -2.4090    -0.8160    -3.1230 hn         1 47A       0.465133
     19 H8          -2.4090     0.8180    -3.1230 hn         1 47A       0.465133
     20 HN3         -3.7420     0.0010    -2.6470 hn         1 47A       0.465133
@<TRIPOS>BOND
     1    10     3 2   
     2    11     4 1   
     3     8     7 ar  
     4     8     1 ar  
     5     3     1 1   
     6     3     4 1   
     7     7     6 ar  
     8     1     2 ar  
     9     6     9 ar  
    10     6     5 1   
    11     2     9 ar  
    12     2    12 1   
    13     4    13 1   
    14     4    14 1   
    15     7    15 1   
    16     8    16 1   
    17     9    17 1   
    18    11    18 1   
    19    11    19 1   
    20    20    11 1   
@<TRIPOS>SUBSTRUCTURE
     1 47A         1 TEMP              0 ****  ****    0 ROOT
