@<TRIPOS>MOLECULE
molecule
   23    25     1     0     0
SMALL
bcc


@<TRIPOS>ATOM
      1 C4           0.0000     0.0000     0.0000 ca         1 47B      -0.105000
      2 C5           1.3810     0.0000     0.0000 ca         1 47B       0.099900
      3 C6          -2.1780     0.0090     1.2140 cc         1 47B       0.365800
      4 N1          -4.1390     0.0140     0.0240 nd         1 47B      -0.226000
      5 C7          -4.8620     0.0100     1.1530 cd         1 47B       0.319500
      6 C8          -6.3800     0.0050     2.7000 cc         1 47B       0.062600
      7 N2          -6.1660     0.0100     1.3830 nc         1 47B      -0.266600
      8 C9          -5.1830     0.0020     3.3320 cd         1 47B      -0.248100
      9 C10         -2.8580     0.0050     2.4010 cd         1 47B      -0.155600
     10 N3          -4.2220     0.0050     2.3680 na         1 47B      -0.077100
     11 F1           2.0570    -0.0020    -1.1710 f          1 47B      -0.120900
     12 C            2.0760     0.0000     1.2010 ca         1 47B       0.110900
     13 F            3.4270    -0.0010     1.1970 f          1 47B      -0.121900
     14 C3          -0.6940     0.0020     1.2090 ca         1 47B      -0.129500
     15 C2           0.0080    -0.0030     2.4110 ca         1 47B      -0.113000
     16 C1           1.3890     0.0020     2.4030 ca         1 47B      -0.145000
     17 N           -2.8530     0.0130     0.0550 nc         1 47B      -0.284000
     18 H1          -0.5420    -0.0690    -0.9360 ha         1 47B       0.180000
     19 H2          -7.3500     0.0030     3.1830 h4         1 47B       0.195000
     20 H3          -5.0200    -0.0020     4.4040 h4         1 47B       0.188000
     21 H4          -2.3380     0.2330     3.3230 h4         1 47B       0.177000
     22 H5          -0.5280    -0.0010     3.3520 ha         1 47B       0.136000
     23 H6           1.9360     0.0000     3.3390 ha         1 47B       0.157000
@<TRIPOS>BOND
     1    13    12 1
     2    16    12 ar
     3    16    15 ar
     4    12     2 ar
     5    11     2 1
     6     2     1 ar
     7    15    14 ar
     8     1    14 ar
     9    14     3 1
    10     3    17 1
    11     3     9 2
    12    17     4 2
    13     9    10 1
    14     4     5 1
    15    10     5 1
    16    10     8 1
    17     5     7 2
    18     8     6 2
    19     7     6 1
    20     1    18 1
    21     6    19 1
    22     8    20 1
    23     9    21 1
    24    15    22 1
    25    16    23 1
@<TRIPOS>SUBSTRUCTURE
     1 47B         1 TEMP              0 ****  ****    0 ROOT
