@<TRIPOS>MOLECULE
molecule
   32    34     1     0     0
SMALL
bcc


@<TRIPOS>ATOM
      1 C1           0.0000     0.0000     0.0000 ca         1 47D       0.102400
      2 N            1.3870     0.0000     0.0000 nc         1 47D      -0.460100
      3 C2           1.8050     0.0000     1.2310 cd         1 47D       0.339200
      4 C3           3.2570    -0.0020     1.6140 c3         1 47D       0.083700
      5 N2           4.0280    -0.9600     0.8280 n          1 47D      -0.500400
      6 C4           4.6010    -0.4950    -0.3870 c          1 47D       0.841500
      7 O1           4.4750     0.6690    -0.7760 o          1 47D      -0.610500
      8 N3           5.3200    -1.4680    -1.1020 n          1 47D      -0.341000
      9 C5           5.9490    -1.0950    -2.3660 c3         1 47D      -0.011000
     10 C6           4.9710    -1.3370    -3.4750 c          1 47D       0.874600
     11 O2           5.5360    -1.0190    -4.6680 o          1 47D      -0.828300
     12 O3           3.8290    -1.7570    -3.3590 o          1 47D      -0.828300
     13 C7           5.4540    -2.7610    -0.6490 cc         1 47D       0.089600
     14 C8           4.9200    -3.1920     0.4920 cd         1 47D      -0.381200
     15 C9           4.1410    -2.2620     1.3340 c          1 47D       0.734700
     16 O4           3.6610    -2.6730     2.3890 o          1 47D      -0.654500
     17 S            0.6400     0.0000     2.4680 ss         1 47D      -0.061100
     18 C10         -0.5950    -0.0000     1.2650 ca         1 47D      -0.076100
     19 C12         -1.9900     0.0000     1.4290 ca         1 47D      -0.092000
     20 C13         -2.7910     0.0010     0.2850 ca         1 47D      -0.125000
     21 C14         -2.2230     0.0000    -0.9840 ca         1 47D       0.010400
     22 Cl          -3.2360    -0.0010    -2.3770 cl         1 47D      -0.107400
     23 C15         -0.8340    -0.0010    -1.1400 ca         1 47D      -0.050000
     24 H31          3.3430    -0.2560     2.6640 h1         1 47D       0.079200
     25 H32          3.6630     0.9900     1.4580 h1         1 47D       0.079200
     26 H51          6.8350    -1.6980    -2.5240 h1         1 47D       0.064200
     27 H52          6.2200    -0.0470    -2.3420 h1         1 47D       0.064200
     28 H7           6.0200    -3.4620    -1.2510 h4         1 47D       0.155000
     29 H8           5.1360    -4.1930     0.8470 ha         1 47D       0.156000
     30 H12         -2.4320     0.0010     2.4180 ha         1 47D       0.137000
     31 H13         -3.8700     0.0010     0.3880 ha         1 47D       0.136000
     32 H15         -0.3980    -0.0010    -2.1320 ha         1 47D       0.178000
@<TRIPOS>BOND
     1     1    23 ar
     2     1    18 ar
     3     1     2 1
     4     2     3 2
     5     3    17 1
     6     3     4 1
     7     4     5 1
     8     4    24 1
     9     4    25 1
    10     5    15 1
    11     5     6 1
    12     6     7 2
    13     6     8 1
    14     8    13 1
    15     8     9 1
    16     9    10 1
    17     9    26 1
    18     9    27 1
    19    10    12 1
    20    10    11 1
    21    13    14 2
    22    13    28 1
    23    14    15 1
    24    14    29 1
    25    15    16 2
    26    17    18 1
    27    18    19 ar
    28    19    20 ar
    29    19    30 1
    30    20    21 ar
    31    20    31 1
    32    21    22 1
    33    21    23 ar
    34    23    32 1
@<TRIPOS>SUBSTRUCTURE
     1 47D         1 TEMP              0 ****  ****    0 ROOT
