@<TRIPOS>MOLECULE
molecule
   18    18     1     0     0
SMALL
bcc


@<TRIPOS>ATOM
      1 C4           0.0000     0.0000     0.0000 ca         1 47E      -0.138000
      2 C5           1.3830     0.0000     0.0000 ca         1 47E      -0.150000
      3 C6           2.0740     0.0000     1.1980 ca         1 47E       0.019400
      4 C7           1.3810     0.0010     2.3960 ca         1 47E      -0.093000
      5 Cl           3.8100    -0.0010     1.1990 cl         1 47E      -0.155400
      6 C3          -0.6910     0.0070     1.1960 ca         1 47E      -0.109000
      7 C2          -0.0010     0.0010     2.3940 ca         1 47E      -0.024300
      8 C1          -0.7560     0.0090     3.6990 c3         1 47E       0.075400
      9 O2          -0.0460    -0.7700     4.6640 oh         1 47E      -0.597800
     10 C           -0.8880     1.4250     4.1940 c          1 47E       0.881600
     11 O           -0.3460     1.7600     5.2220 o          1 47E      -0.826300
     12 O1          -1.6090     2.3170     3.4960 o          1 47E      -0.826300
     13 H1          -0.5410     0.0020    -0.9380 ha         1 47E       0.116000
     14 H2           1.9250    -0.0030    -0.9380 ha         1 47E       0.119000
     15 H3           1.9210    -0.0010     3.3340 ha         1 47E       0.164000
     16 H4          -1.7750     0.0070     1.1950 ha         1 47E       0.136000
     17 H5          -1.7420    -0.4150     3.5480 h1         1 47E       0.027700
     18 H6          -0.6350    -1.3890     5.0630 ho         1 47E       0.378000
@<TRIPOS>BOND
     1     6     1 ar
     2     6     7 ar
     3     1     2 ar
     4     8     9 1
     5     8     7 1
     6     8    10 1
     7     7     4 ar
     8     2     3 ar
     9    10    11 1
    10    10    12 1
    11     4     3 ar
    12     3     5 1
    13     1    13 1
    14     2    14 1
    15     4    15 1
    16     6    16 1
    17     8    17 1
    18     9    18 1
@<TRIPOS>SUBSTRUCTURE
     1 47E         1 TEMP              0 ****  ****    0 ROOT
