@<TRIPOS>MOLECULE
47G
   23    23     1     0     0
SMALL
bcc


@<TRIPOS>ATOM
      1 C4           0.0000     0.0000     0.0000 ca         1 47G      -0.245300
      2 C5           1.3820     0.0000     0.0000 ca         1 47G      -0.058000
      3 C6          -0.7510    -0.0010    -1.3070 c3         1 47G       0.044100
      4 C7           3.4930     0.0200     3.4990 c3         1 47G       0.243700
      5 O           -0.6890    -0.0100     3.5730 oh         1 47G      -0.462100
      6 C2          -0.0060    -0.0100     2.3970 ca         1 47G       0.114100
      7 C1           1.3860    -0.0010     2.3980 ca         1 47G       0.210100
      8 O1           2.0660     0.0100     3.5750 os         1 47G      -0.271900
      9 C3          -0.6960    -0.0050     1.1950 ca         1 47G      -0.093000
     10 C            2.0760     0.0000     1.1960 ca         1 47G      -0.187000
     11 N           -0.9950    -1.3850    -1.7310 nz         1 47G       0.071400
     12 H1           1.9230     0.0120    -0.9390 ha         1 47G       0.107000
     13 H2          -1.6970     0.5100    -1.1790 hx         1 47G       0.080700
     14 H3          -0.1640     0.5100    -2.0610 hx         1 47G       0.080700
     15 H4           3.8330    -0.8670     2.9790 h1         1 47G       0.008033
     16 H5           3.9070     0.0320     4.5000 h1         1 47G       0.008033
     17 H6           3.8200     0.9020     2.9620 h1         1 47G       0.008033
     18 H7          -1.0530    -0.8670     3.7260 ho         1 47G       0.410000
     19 H8          -1.7780     0.0520     1.1910 ha         1 47G       0.121000
     20 H9           3.1140    -0.0090     0.8860 ha         1 47G       0.148000
     21 H10         -1.4870    -1.3850    -2.6030 hn         1 47G       0.221800
     22 H11         -0.1210    -1.8590    -1.8420 hn         1 47G       0.221800
     23 HN3         -1.5440    -1.8550    -1.0380 hn         1 47G       0.221800
@<TRIPOS>BOND
     1     1     2 ar  
     2     1     3 1   
     3     1     9 ar  
     4     2    10 ar  
     5     2    12 1   
     6     3    11 1   
     7     3    13 1   
     8     3    14 1   
     9     4     8 1   
    10     4    15 1   
    11     4    16 1   
    12     4    17 1   
    13     5     6 1   
    14     5    18 1   
    15     6     7 ar  
    16     6     9 ar  
    17     7     8 1   
    18     7    10 ar  
    19     9    19 1   
    20    10    20 1   
    21    11    21 1   
    22    11    22 1   
    23    11    23 1   
@<TRIPOS>SUBSTRUCTURE
     1 47G         1 TEMP              0 ****  ****    0 ROOT
