@<TRIPOS>MOLECULE
molecule
   23    23     1     0     0
SMALL
bcc


@<TRIPOS>ATOM
      1 C4           0.0000     0.0000     0.0000 ca         1 47G      -0.232300
      2 C5           1.3820     0.0000     0.0000 ca         1 47G      -0.085000
      3 C6          -0.7510    -0.0010    -1.3070 c3         1 47G       0.163100
      4 C7           3.4930     0.0200     3.4990 c3         1 47G       0.121700
      5 O           -0.6890    -0.0100     3.5730 oh         1 47G      -0.481100
      6 C2          -0.0060    -0.0100     2.3970 ca         1 47G       0.098100
      7 C1           1.3860    -0.0010     2.3980 ca         1 47G       0.202100
      8 O1           2.0660     0.0100     3.5750 os         1 47G      -0.287900
      9 C3          -0.6960    -0.0050     1.1950 ca         1 47G      -0.112000
     10 C            2.0760     0.0000     1.1960 ca         1 47G      -0.211000
     11 N           -0.9950    -1.3850    -1.7310 nz         1 47G      -0.810600
     12 H1           1.9230     0.0120    -0.9390 ha         1 47G       0.136000
     13 H2          -1.6970     0.5100    -1.1790 hx         1 47G       0.111200
     14 H3          -0.1640     0.5100    -2.0610 hx         1 47G       0.111200
     15 H4           3.8330    -0.8670     2.9790 h1         1 47G       0.056033
     16 H5           3.9070     0.0320     4.5000 h1         1 47G       0.056033
     17 H6           3.8200     0.9020     2.9620 h1         1 47G       0.056033
     18 H7          -1.0530    -0.8670     3.7260 ho         1 47G       0.429000
     19 H8          -1.7780     0.0520     1.1910 ha         1 47G       0.149000
     20 H9           3.1140    -0.0090     0.8860 ha         1 47G       0.171000
     21 H10         -1.4870    -1.3850    -2.6030 hn         1 47G       0.453133
     22 H11         -0.1210    -1.8590    -1.8420 hn         1 47G       0.453133
     23 HN3         -1.5440    -1.8550    -1.0380 hn         1 47G       0.453133
@<TRIPOS>BOND
     1    11     3 1
     2     5     6 1
     3     9     6 ar
     4     9     1 ar
     5     6     7 ar
     6     3     1 1
     7     1     2 ar
     8     7     8 1
     9     7    10 ar
    10     2    10 ar
    11     8     4 1
    12     2    12 1
    13     3    13 1
    14     3    14 1
    15     4    15 1
    16     4    16 1
    17     4    17 1
    18     5    18 1
    19     9    19 1
    20    10    20 1
    21    11    21 1
    22    11    22 1
    23    23    11 1
@<TRIPOS>SUBSTRUCTURE
     1 47G         1 TEMP              0 ****  ****    0 ROOT
