@<TRIPOS>MOLECULE
molecule
   31    33     1     0     0
SMALL
bcc


@<TRIPOS>ATOM
      1 C4           0.0000     0.0000     0.0000 ca         1 47H       0.152600
      2 C5           1.4040     0.0000     0.0000 ca         1 47H      -0.106800
      3 C6           2.0970     0.0000     1.2070 ca         1 47H      -0.070000
      4 C7           1.3960    -0.0030     2.4000 ca         1 47H       0.007100
      5 C8           0.0010    -0.0050     2.3950 ca         1 47H       0.088100
      6 C9          -0.6940    -0.0000     1.1940 ca         1 47H      -0.173000
      7 C10          0.6900     0.4070     4.4790 c3         1 47H       0.331200
      8 N           -0.6600     0.0050    -1.2340 nu         1 47H      -0.691600
      9 O           -0.4390    -0.0080     3.6870 os         1 47H      -0.324900
     10 O1           1.8270    -0.0030     3.6970 os         1 47H      -0.325900
     11 C1           2.1130    -0.0060    -1.2940 ce         1 47H      -0.035400
     12 H1           3.1760    -0.1000     1.2120 ha         1 47H       0.147000
     13 H2          -1.7740    -0.0810     1.1930 ha         1 47H       0.147000
     14 C2           1.4540     0.2980    -2.4060 c2         1 47H      -0.175200
     15 C3          -0.0050     0.6650    -2.3710 c3         1 47H       0.235400
     16 C11         -0.6740     0.2170    -3.6720 c3         1 47H      -0.101100
     17 C12         -0.1440     2.1820    -2.2270 c3         1 47H      -0.101100
     18 H3           0.6860     1.4830     4.6080 h2         1 47H       0.067700
     19 H4           0.6870    -0.0980     5.4370 h2         1 47H       0.067700
     20 H5          -1.5820     0.3780    -1.1180 hn         1 47H       0.380800
     21 H7           2.0420     0.7080    -3.2190 ha         1 47H       0.134000
     22 H8          -0.5880    -0.8590    -3.7700 hc         1 47H       0.043533
     23 H9          -1.7200     0.4950    -3.6550 hc         1 47H       0.043533
     24 H10         -0.1860     0.6950    -4.5120 hc         1 47H       0.043533
     25 H11         -1.1770     2.4310    -2.0190 hc         1 47H       0.043533
     26 H12          0.4820     2.5260    -1.4130 hc         1 47H       0.043533
     27 H13          0.1650     2.6610    -3.1480 hc         1 47H       0.043533
     28 C13          3.5780    -0.3540    -1.3540 c3         1 47H      -0.051900
     29 H6           3.7590    -1.2540    -0.7780 hc         1 47H       0.046033
     30 H14          3.8680    -0.5210    -2.3840 hc         1 47H       0.046033
     31 H15          4.1600     0.4610    -0.9420 hc         1 47H       0.046033
@<TRIPOS>BOND
     1    10     7 1   
     2    10     4 1   
     3     7     9 1   
     4     3     4 ar  
     5     3     2 ar  
     6     4     5 ar  
     7     9     5 1   
     8    11     2 1   
     9     2     1 ar  
    10     5     6 ar  
    11     6     1 ar  
    12     1     8 1   
    13     3    12 1   
    14     6    13 1   
    15    11    14 2   
    16    14    15 1   
    17     8    15 1   
    18    15    16 1   
    19    15    17 1   
    20     7    18 1   
    21     7    19 1   
    22     8    20 1   
    23    14    21 1   
    24    16    22 1   
    25    16    23 1   
    26    16    24 1   
    27    17    25 1   
    28    17    26 1   
    29    17    27 1   
    30    11    28 1   
    31    28    29 1   
    32    28    30 1   
    33    28    31 1   
@<TRIPOS>SUBSTRUCTURE
     1 47H         1 TEMP              0 ****  ****    0 ROOT
