@<TRIPOS>MOLECULE
47J
   21    21     1     0     0
SMALL
bcc


@<TRIPOS>ATOM
      1 C4           0.0000     0.0000     0.0000 c3         1 47J       0.075100
      2 N1           2.4580     0.0000     0.6660 na         1 47J       0.500400
      3 N2           3.6910     0.0000     0.0000 nc         1 47J      -0.567800
      4 C1           3.4600     0.0090    -1.2880 cd         1 47J       0.380600
      5 C            4.5060     0.0120    -2.3730 c3         1 47J      -0.008400
      6 C3           1.4830     0.0050    -0.2660 cc         1 47J      -0.371600
      7 C2           2.0750     0.0160    -1.4830 cd         1 47J      -0.252300
      8 N           -0.4580    -1.3820     0.1970 nz         1 47J       0.063400
      9 H1          -0.2090     0.5800     0.8910 hx         1 47J       0.085700
     10 H2          -0.5200     0.4360    -0.8450 hx         1 47J       0.085700
     11 H3           3.2100     0.1800     2.6100 h1         1 47J       0.029700
     12 H4           1.5540     0.7630     2.3920 h1         1 47J       0.029700
     13 H5           1.8830    -0.9750     2.4260 h1         1 47J       0.029700
     14 H6           4.3850    -0.8680    -2.9930 hc         1 47J       0.025700
     15 H7           5.4920     0.0050    -1.9250 hc         1 47J       0.025700
     16 H8           4.3920     0.9010    -2.9820 hc         1 47J       0.025700
     17 H9           1.5660     0.0240    -2.4390 ha         1 47J       0.144000
     18 H10          0.2630    -2.0160    -0.0850 hn         1 47J       0.227467
     19 H11         -1.2780    -1.5430    -0.3540 hn         1 47J       0.227467
     20 HN3         -0.6720    -1.5280     1.1640 hn         1 47J       0.227467
     21 C5           2.2630    -0.0080     2.1180 c3         1 47J       0.015600
@<TRIPOS>BOND
     1     1     6 1   
     2     1     8 1   
     3     1     9 1   
     4     1    10 1   
     5     2     3 1   
     6     2     6 1   
     7     2    21 1   
     8     3     4 2   
     9     4     5 1   
    10     4     7 1   
    11     5    14 1   
    12     5    15 1   
    13     5    16 1   
    14     6     7 2   
    15     7    17 1   
    16     8    18 1   
    17     8    19 1   
    18     8    20 1   
    19    11    21 1   
    20    12    21 1   
    21    13    21 1   
@<TRIPOS>SUBSTRUCTURE
     1 47J         1 TEMP              0 ****  ****    0 ROOT
