@<TRIPOS>MOLECULE
molecule
   21    21     1     0     0
SMALL
bcc


@<TRIPOS>ATOM
      1 C4           0.0000     0.0000     0.0000 c3         1 47J       0.185100
      2 N1           2.4580     0.0000     0.6660 na         1 47J       0.074400
      3 N2           3.6910     0.0000     0.0000 nc         1 47J      -0.438800
      4 C1           3.4600     0.0090    -1.2880 cc         1 47J       0.354600
      5 C            4.5060     0.0120    -2.3730 c3         1 47J      -0.118400
      6 C3           1.4830     0.0050    -0.2660 cd         1 47J      -0.199600
      7 C2           2.0750     0.0160    -1.4830 cc         1 47J      -0.273300
      8 N           -0.4580    -1.3820     0.1970 nz         1 47J      -0.815600
      9 H1          -0.2090     0.5800     0.8910 hx         1 47J       0.118700
     10 H2          -0.5200     0.4360    -0.8450 hx         1 47J       0.118700
     11 H3           3.2100     0.1800     2.6100 h1         1 47J       0.065033
     12 H4           1.5540     0.7630     2.3920 h1         1 47J       0.065033
     13 H5           1.8830    -0.9750     2.4260 h1         1 47J       0.065033
     14 H6           4.3850    -0.8680    -2.9930 hc         1 47J       0.068367
     15 H7           5.4920     0.0050    -1.9250 hc         1 47J       0.068367
     16 H8           4.3920     0.9010    -2.9820 hc         1 47J       0.068367
     17 H9           1.5660     0.0240    -2.4390 ha         1 47J       0.168000
     18 H10          0.2630    -2.0160    -0.0850 hn         1 47J       0.458800
     19 H11         -1.2780    -1.5430    -0.3540 hn         1 47J       0.458800
     20 HN3         -0.6720    -1.5280     1.1640 hn         1 47J       0.458800
     21 C5           2.2630    -0.0080     2.1180 c3         1 47J       0.050600
@<TRIPOS>BOND
     1     8     1 1
     2     5     4 1
     3     7     4 1
     4     7     6 2
     5     4     3 2
     6     6     1 1
     7     6     2 1
     8     3     2 1
     9     2    21 1
    10     1     9 1
    11     1    10 1
    12    21    11 1
    13    21    12 1
    14    21    13 1
    15     5    14 1
    16     5    15 1
    17     5    16 1
    18     7    17 1
    19     8    18 1
    20     8    19 1
    21    20     8 1
@<TRIPOS>SUBSTRUCTURE
     1 47J         1 TEMP              0 ****  ****    0 ROOT
