@<TRIPOS>MOLECULE
47L
   36    37     1     0     0
SMALL
bcc


@<TRIPOS>ATOM
      1 C4           0.0000     0.0000     0.0000 c3         1 47L      -0.061400
      2 C5           1.5420     0.0000     0.0000 c3         1 47L       0.212400
      3 C6           3.7980    -1.0730     6.0870 c3         1 47L      -0.119700
      4 C7           5.0060    -0.5230     5.3260 c3         1 47L      -0.014400
      5 C8           6.2910    -1.0890     5.9330 c3         1 47L      -0.024900
      6 C9           6.3840    -0.6790     7.4050 c3         1 47L      -0.025400
      7 C10          5.1750    -1.2290     8.1650 c3         1 47L      -0.024900
      8 C11          3.8900    -0.6620     7.5570 c3         1 47L      -0.014400
      9 O            1.7790     0.1460     6.1710 o          1 47L      -0.650100
     10 C            2.5320    -0.5140     5.4880 c          1 47L       0.574100
     11 N            2.2370    -0.7490     4.1950 ns         1 47L      -0.195900
     12 C1           1.0070    -0.2070     3.6130 c3         1 47L       0.050000
     13 C2           0.9140    -0.6170     2.1420 c3         1 47L       0.157100
     14 O1           1.9690     0.0000     1.3730 os         1 47L      -0.407600
     15 C3          -0.3820    -0.0550     1.4990 c3         1 47L      -0.047400
     16 H1          -0.3770    -0.8740    -0.5180 hc         1 47L       0.022200
     17 H2          -0.3770     0.9090    -0.4530 hc         1 47L       0.022200
     18 H3           1.9090    -0.8890    -0.4990 h1         1 47L       0.006700
     19 H4           1.9090     0.8890    -0.4990 h1         1 47L       0.006700
     20 H5           3.7900    -2.1540     6.0150 hc         1 47L       0.036700
     21 H6           5.0180     0.5580     5.4020 hc         1 47L       0.024200
     22 H7           4.9410    -0.8160     4.2850 hc         1 47L       0.024200
     23 H8           7.1460    -0.6980     5.3960 hc         1 47L       0.012950
     24 H9           6.2770    -2.1700     5.8620 hc         1 47L       0.012950
     25 H10          6.3940     0.4020     7.4770 hc         1 47L       0.014200
     26 H11          7.2930    -1.0830     7.8340 hc         1 47L       0.014200
     27 H12          5.2400    -0.9360     9.2060 hc         1 47L       0.012950
     28 H13          5.1630    -2.3090     8.0880 hc         1 47L       0.012950
     29 H14          3.0350    -1.0540     8.0950 hc         1 47L       0.024200
     30 H15          3.9040     0.4190     7.6290 hc         1 47L       0.024200
     31 H16          2.8410    -1.3230     3.6410 hn         1 47L       0.181500
     32 H17          1.0180     0.8740     3.6870 h1         1 47L       0.034200
     33 H18          0.1510    -0.5970     4.1510 h1         1 47L       0.034200
     34 H19          0.9510    -1.6940     2.0380 h1         1 47L       0.016700
     35 H20         -1.2140    -0.7290     1.6590 hc         1 47L       0.028700
     36 H21         -0.6000     0.9370     1.8760 hc         1 47L       0.028700
@<TRIPOS>BOND
     1     1     2 1   
     2     1    15 1   
     3     1    16 1   
     4     1    17 1   
     5     2    14 1   
     6     2    18 1   
     7     2    19 1   
     8     3     4 1   
     9     3     8 1   
    10     3    10 1   
    11     3    20 1   
    12     4     5 1   
    13     4    21 1   
    14     4    22 1   
    15     5     6 1   
    16     5    23 1   
    17     5    24 1   
    18     6     7 1   
    19     6    25 1   
    20     6    26 1   
    21     7     8 1   
    22     7    27 1   
    23     7    28 1   
    24     8    29 1   
    25     8    30 1   
    26     9    10 2   
    27    10    11 1   
    28    11    12 1   
    29    11    31 1   
    30    12    13 1   
    31    12    32 1   
    32    12    33 1   
    33    13    14 1   
    34    13    15 1   
    35    13    34 1   
    36    15    35 1   
    37    15    36 1   
@<TRIPOS>SUBSTRUCTURE
     1 47L         1 TEMP              0 ****  ****    0 ROOT
