@<TRIPOS>MOLECULE
molecule
   36    37     1     0     0
SMALL
bcc


@<TRIPOS>ATOM
      1 C4           0.0000     0.0000     0.0000 c3         1 47L      -0.117400
      2 C5           1.5420     0.0000     0.0000 c3         1 47L       0.125400
      3 C6           3.7980    -1.0730     6.0870 c3         1 47L      -0.143700
      4 C7           5.0060    -0.5230     5.3260 c3         1 47L      -0.066400
      5 C8           6.2910    -1.0890     5.9330 c3         1 47L      -0.081400
      6 C9           6.3840    -0.6790     7.4050 c3         1 47L      -0.081400
      7 C10          5.1750    -1.2290     8.1650 c3         1 47L      -0.081400
      8 C11          3.8900    -0.6620     7.5570 c3         1 47L      -0.066400
      9 O            1.7790     0.1460     6.1710 o          1 47L      -0.613100
     10 C            2.5320    -0.5140     5.4880 c          1 47L       0.660100
     11 N            2.2370    -0.7490     4.1950 ns         1 47L      -0.582900
     12 C1           1.0070    -0.2070     3.6130 c3         1 47L       0.121000
     13 C2           0.9140    -0.6170     2.1420 c3         1 47L       0.111100
     14 O1           1.9690     0.0000     1.3730 os         1 47L      -0.413600
     15 C3          -0.3820    -0.0550     1.4990 c3         1 47L      -0.106400
     16 H1          -0.3770    -0.8740    -0.5180 hc         1 47L       0.053200
     17 H2          -0.3770     0.9090    -0.4530 hc         1 47L       0.053200
     18 H3           1.9090    -0.8890    -0.4990 h1         1 47L       0.047700
     19 H4           1.9090     0.8890    -0.4990 h1         1 47L       0.047700
     20 H5           3.7900    -2.1540     6.0150 hc         1 47L       0.062700
     21 H6           5.0180     0.5580     5.4020 hc         1 47L       0.052450
     22 H7           4.9410    -0.8160     4.2850 hc         1 47L       0.052450
     23 H8           7.1460    -0.6980     5.3960 hc         1 47L       0.041450
     24 H9           6.2770    -2.1700     5.8620 hc         1 47L       0.041450
     25 H10          6.3940     0.4020     7.4770 hc         1 47L       0.042200
     26 H11          7.2930    -1.0830     7.8340 hc         1 47L       0.042200
     27 H12          5.2400    -0.9360     9.2060 hc         1 47L       0.041450
     28 H13          5.1630    -2.3090     8.0880 hc         1 47L       0.041450
     29 H14          3.0350    -1.0540     8.0950 hc         1 47L       0.052450
     30 H15          3.9040     0.4190     7.6290 hc         1 47L       0.052450
     31 H16          2.8410    -1.3230     3.6410 hn         1 47L       0.319500
     32 H17          1.0180     0.8740     3.6870 h1         1 47L       0.062200
     33 H18          0.1510    -0.5970     4.1510 h1         1 47L       0.062200
     34 H19          0.9510    -1.6940     2.0380 h1         1 47L       0.047700
     35 H20         -1.2140    -0.7290     1.6590 hc         1 47L       0.059700
     36 H21         -0.6000     0.9370     1.8760 hc         1 47L       0.059700
@<TRIPOS>BOND
     1     5     4 1   
     2     5     6 1   
     3    11    12 1   
     4    11    10 1   
     5     4     3 1   
     6    12    13 1   
     7     3    10 1   
     8     3     8 1   
     9    10     9 2   
    10     6     7 1   
    11     7     8 1   
    12    14    13 1   
    13    14     2 1   
    14    13    15 1   
    15    15     1 1   
    16     2     1 1   
    17     1    16 1   
    18     1    17 1   
    19     2    18 1   
    20     2    19 1   
    21     3    20 1   
    22     4    21 1   
    23     4    22 1   
    24     5    23 1   
    25     5    24 1   
    26     6    25 1   
    27     6    26 1   
    28     7    27 1   
    29     7    28 1   
    30     8    29 1   
    31     8    30 1   
    32    11    31 1   
    33    12    32 1   
    34    12    33 1   
    35    13    34 1   
    36    15    35 1   
    37    15    36 1   
@<TRIPOS>SUBSTRUCTURE
     1 47L         1 TEMP              0 ****  ****    0 ROOT
