@<TRIPOS>MOLECULE
47N
   42    44     1     0     0
SMALL
bcc


@<TRIPOS>ATOM
      1 OAG         0.5550    0.3440   -0.5080 oh        1 47N     -0.591800
      2 CAB         1.8610    0.0040   -0.0830 c3        1 47N      0.110100
      3 CAC         1.8110   -0.0490    1.4570 c3        1 47N      0.102100
      4 CAD         1.0000   -1.3150    1.8200 c3        1 47N      0.082100
      5 OAI         0.6760   -1.4170    3.1870 oh        1 47N     -0.581800
      6 OAH         3.1420   -0.2710    1.9450 os        1 47N     -0.410600
      7 CAF         3.3750   -1.6930    2.0030 c3        1 47N      0.085400
      8 CAE         2.0890   -2.3700    1.4890 c3        1 47N      0.131100
      9 OAJ         2.1310   -2.5360    0.0790 os        1 47N     -0.442600
     10 CAA         2.3490   -1.3450   -0.6780 c3        1 47N      0.300900
     11 O3          1.5540   -1.5870   -1.8270 os        1 47N     -0.438600
     12 C3          2.0640   -2.5980   -2.6990 c3        1 47N      0.121100
     13 C4          0.8250   -3.2310   -3.3620 c3        1 47N      0.119100
     14 O4         -0.0300   -2.2430   -3.9110 oh        1 47N     -0.591800
     15 C5          1.2570   -4.1730   -4.4940 c3        1 47N      0.113100
     16 C6          0.0490   -4.6620   -5.3010 c3        1 47N      0.142400
     17 O6          0.4280   -5.6650   -6.2170 oh        1 47N     -0.597800
     18 O5          2.1120   -3.5300   -5.4400 os        1 47N     -0.448600
     19 C1          3.2890   -2.9850   -4.8670 c3        1 47N      0.312900
     20 O1          3.9160   -2.3730   -5.9600 oh        1 47N     -0.596800
     21 C2          2.9630   -1.9560   -3.7630 c3        1 47N      0.064100
     22 O2          4.1580   -1.5450   -3.1220 oh        1 47N     -0.601800
     23 HAG         0.5510    0.3110   -1.4740 ho        1 47N      0.423000
     24 HAB         2.5890    0.7960   -0.4140 h1        1 47N      0.065700
     25 HAC         1.4490    0.9030    1.9070 h1        1 47N      0.102700
     26 HAA         3.4460   -1.2940   -0.9330 h2        1 47N      0.088700
     27 HAD         0.0880   -1.4220    1.1780 h1        1 47N      0.088700
     28 HAI         0.1210   -0.6540    3.3950 ho        1 47N      0.412000
     29 HAE         1.9010   -3.3850    1.9100 h1        1 47N      0.113700
     30 HAF1        3.5710   -1.9510    3.0720 h1        1 47N      0.068700
     31 HAF2        4.2610   -1.9140    1.3600 h1        1 47N      0.068700
     32 H3          2.6350   -3.3720   -2.1200 h1        1 47N      0.086700
     33 H4          0.2630   -3.8200   -2.5830 h1        1 47N      0.063700
     34 H2          2.4410   -1.0660   -4.2130 h1        1 47N      0.068700
     35 HA         -0.2580   -1.6430   -3.1870 ho        1 47N      0.421000
     36 H5          1.8100   -5.0460   -4.0440 h1        1 47N      0.060700
     37 H61C       -0.6890   -5.1510   -4.6130 h1        1 47N      0.067200
     38 H62C       -0.4270   -3.7940   -5.8280 h1        1 47N      0.067200
     39 H6          1.0660   -5.2670   -6.8240 ho        1 47N      0.413000
     40 H1          3.9860   -3.7860   -4.4940 h2        1 47N      0.085700
     41 HB          3.2330   -1.9530   -6.5040 ho        1 47N      0.429000
     42 HC          4.7620   -1.2600   -3.8220 ho        1 47N      0.422000
@<TRIPOS>BOND
     1    1    2 1   
     2    1   23 1   
     3    2    3 1   
     4    2   10 1   
     5    2   24 1   
     6    3    4 1   
     7    3    6 1   
     8    3   25 1   
     9    4    5 1   
    10    4    8 1   
    11    4   27 1   
    12    5   28 1   
    13    6    7 1   
    14    7    8 1   
    15    7   30 1   
    16    7   31 1   
    17    8    9 1   
    18    8   29 1   
    19    9   10 1   
    20   10   11 1   
    21   10   26 1   
    22   11   12 1   
    23   12   13 1   
    24   12   21 1   
    25   12   32 1   
    26   13   14 1   
    27   13   15 1   
    28   13   33 1   
    29   14   35 1   
    30   15   16 1   
    31   15   18 1   
    32   15   36 1   
    33   16   17 1   
    34   16   37 1   
    35   16   38 1   
    36   17   39 1   
    37   18   19 1   
    38   19   20 1   
    39   19   21 1   
    40   19   40 1   
    41   20   41 1   
    42   21   22 1   
    43   21   34 1   
    44   22   42 1   
@<TRIPOS>SUBSTRUCTURE
     1 47N         1 TEMP              0 ****  ****    0 ROOT
