@<TRIPOS>MOLECULE
molecule
   42    44     1     0     0
SMALL
bcc


@<TRIPOS>ATOM
      1 OAG          0.0000     0.0000     0.0000 oh         1 47N      -0.589800
      2 CAB          1.4290     0.0000     0.0000 c3         1 47N       0.103100
      3 CAC          1.9460     0.0000     1.4520 c3         1 47N       0.107100
      4 CAD          1.3220    -1.2520     2.1290 c3         1 47N       0.082100
      5 OAI          1.5570    -1.2550     3.5390 oh         1 47N      -0.589800
      6 OAH          3.3570    -0.2930     1.3980 os         1 47N      -0.404600
      7 CAF          3.5460    -1.7120     1.3340 c3         1 47N       0.086400
      8 CAE          2.1430    -2.3630     1.4130 c3         1 47N       0.119100
      9 OAJ          1.6360    -2.4230     0.0660 os         1 47N      -0.443600
     10 CAA          1.9430    -1.2590    -0.7050 c3         1 47N       0.331900
     11 O3           1.3260    -1.3660    -1.9900 os         1 47N      -0.384600
     12 C3           1.8190    -2.4480    -2.7820 c3         1 47N       0.133100
     13 C4           0.7090    -2.9510    -3.7090 c3         1 47N       0.118100
     14 O4           0.2340    -1.8720    -4.5170 oh         1 47N      -0.583800
     15 C5           1.2680    -4.0570    -4.6090 c3         1 47N       0.154100
     16 C6           0.1800    -4.5240    -5.5790 c3         1 47N       0.150400
     17 O6           0.6650    -5.6330    -6.3390 oh         1 47N      -0.600800
     18 O5           2.3810    -3.5490    -5.3480 os         1 47N      -0.418600
     19 C1           3.4690    -3.1070    -4.5350 c3         1 47N       0.334900
     20 O1           4.5320    -2.6480    -5.3710 oh         1 47N      -0.581800
     21 C2           2.9980    -1.9640    -3.6320 c3         1 47N       0.102100
     22 O2           4.0690    -1.5590    -2.7760 oh         1 47N      -0.611800
     23 HAG         -0.3140     0.8620    -0.2180 ho         1 47N       0.405000
     24 HAB          1.7930     0.8800    -0.5160 h1         1 47N       0.060700
     25 HAC          1.7260     0.9190     1.9810 h1         1 47N       0.100700
     26 HAA          3.0170    -1.1850    -0.8290 h2         1 47N       0.078700
     27 HAD          0.2660    -1.3360     1.9020 h1         1 47N       0.087700
     28 HAI          0.7350    -1.3160     3.9950 ho         1 47N       0.406000
     29 HAE          2.1320    -3.3140     1.9300 h1         1 47N       0.111700
     30 HAF1         4.0240    -1.9790     0.3990 h1         1 47N       0.065200
     31 HAF2         4.1530    -2.0420     2.1670 h1         1 47N       0.065200
     32 H3           2.1460    -3.2560    -2.1390 h1         1 47N       0.069700
     33 H4          -0.1050    -3.3480    -3.1140 h1         1 47N       0.055700
     34 H2           2.6820    -1.1290    -4.2440 h1         1 47N       0.085700
     35 HA          -0.6750    -1.7120    -4.3260 ho         1 47N       0.406000
     36 H5           1.5930    -4.8880    -3.9960 h1         1 47N       0.051700
     37 H61C        -0.0790    -3.7130    -6.2490 h1         1 47N       0.037200
     38 H62C        -0.6980    -4.8250    -5.0200 h1         1 47N       0.037200
     39 H6          -0.0400    -5.9970    -6.8480 ho         1 47N       0.403000
     40 H1           3.8160    -3.9300    -3.9220 h2         1 47N       0.029700
     41 HB           5.0530    -3.3830    -5.6500 ho         1 47N       0.415000
     42 HC           4.4430    -0.7570    -3.1000 ho         1 47N       0.418000
@<TRIPOS>BOND
     1     1     2 1   
     2     2     3 1   
     3     2    10 1   
     4     3     4 1   
     5     3     6 1   
     6     4     5 1   
     7     4     8 1   
     8     6     7 1   
     9     7     8 1   
    10     8     9 1   
    11     9    10 1   
    12    10    11 1   
    13    11    12 1   
    14    12    13 1   
    15    12    21 1   
    16    13    14 1   
    17    13    15 1   
    18    15    16 1   
    19    15    18 1   
    20    16    17 1   
    21    18    19 1   
    22    19    20 1   
    23    19    21 1   
    24    21    22 1   
    25     1    23 1   
    26     2    24 1   
    27     3    25 1   
    28    10    26 1   
    29     4    27 1   
    30     5    28 1   
    31     8    29 1   
    32     7    30 1   
    33     7    31 1   
    34    12    32 1   
    35    13    33 1   
    36    21    34 1   
    37    14    35 1   
    38    15    36 1   
    39    16    37 1   
    40    16    38 1   
    41    17    39 1   
    42    19    40 1   
    43    20    41 1   
    44    22    42 1   
@<TRIPOS>SUBSTRUCTURE
     1 47N         1 TEMP              0 ****  ****    0 ROOT
