@<TRIPOS>MOLECULE
molecule
   38    40     1     0     0
SMALL
bcc


@<TRIPOS>ATOM
      1 C4           0.0000     0.0000     0.0000 cx         1 47P      -0.140400
      2 C6           3.6010    -2.3230    -2.1250 c3         1 47P       0.124500
      3 N1           4.4990    -0.8030    -3.7660 nc         1 47P      -0.619100
      4 C7           4.4770    -2.0200    -3.3130 cd         1 47P       0.488900
      5 C8           5.2630    -0.4560    -4.8330 ca         1 47P       0.192400
      6 N2           5.2020    -3.0320    -3.8540 ns         1 47P      -0.474400
      7 C9           5.2880     0.8520    -5.3220 ca         1 47P      -0.119000
      8 C10          6.0770     1.1590    -6.4070 ca         1 47P      -0.094000
      9 C11          6.8520     0.1850    -7.0230 ca         1 47P      -0.155000
     10 C12          6.8440    -1.1130    -6.5590 ca         1 47P      -0.053000
     11 C13          6.0520    -1.4440    -5.4620 ca         1 47P      -0.208600
     12 C14          6.0040    -2.8120    -4.9230 c          1 47P       0.709100
     13 O            6.6590    -3.7100    -5.4170 o          1 47P      -0.624500
     14 N            2.9110    -1.0980    -1.6990 n3         1 47P      -0.700600
     15 C1           2.2360    -1.2940    -0.4090 c3         1 47P       0.203500
     16 C            3.2710    -1.6680     0.6550 c3         1 47P      -0.097100
     17 C2           1.5300     0.0000     0.0000 cx         1 47P      -0.124700
     18 C3           0.7650     0.0000     1.3250 cx         1 47P      -0.140400
     19 H1          -0.4680    -0.9390    -0.2690 hc         1 47P       0.073450
     20 H2          -0.4680     0.9390    -0.2690 hc         1 47P       0.073450
     21 H3           2.2350    -1.0730    -3.6830 h1         1 47P       0.037367
     22 H4           1.9890     0.4350    -2.7920 h1         1 47P       0.037367
     23 H5           0.9610    -0.9660    -2.4600 h1         1 47P       0.037367
     24 H6           2.8700    -3.0740    -2.3970 h1         1 47P       0.053700
     25 H7           4.2130    -2.6930    -1.3110 h1         1 47P       0.053700
     26 H8           5.1440    -3.9500    -3.4590 hn         1 47P       0.334500
     27 H9           4.6880     1.6200    -4.8500 ha         1 47P       0.150000
     28 H10          6.0950     2.1740    -6.7840 ha         1 47P       0.134000
     29 H11          7.4670     0.4470    -7.8750 ha         1 47P       0.135000
     30 H12          7.4500    -1.8690    -7.0430 ha         1 47P       0.153000
     31 H14          1.5070    -2.0900    -0.5000 h1         1 47P       0.021700
     32 H15          3.1350    -1.0410     1.5270 hc         1 47P       0.043367
     33 H16          4.2680    -1.5210     0.2570 hc         1 47P       0.043367
     34 H17          3.1430    -2.7070     0.9330 hc         1 47P       0.043367
     35 H18          1.9840     0.9490    -0.2620 hc         1 47P       0.097700
     36 H19          0.7640     0.9390     1.8650 hc         1 47P       0.073450
     37 H20          0.7640    -0.9390     1.8650 hc         1 47P       0.073450
     38 C5           1.9620    -0.6460    -2.7260 c3         1 47P       0.162100
@<TRIPOS>BOND
     1    13    12 2   
     2    10     9 ar  
     3    10    11 ar  
     4    12    11 1   
     5    12     6 1   
     6     9     8 ar  
     7    11     5 ar  
     8     6     4 1   
     9     8     7 ar  
    10     5     7 ar  
    11     5     3 1   
    12     4     3 2   
    13     4     2 1   
    14     2    14 1   
    15    17    18 1   
    16    17     1 1   
    17    17    15 1   
    18    14    15 1   
    19    14    38 1   
    20    16    15 1   
    21    18     1 1   
    22     1    19 1   
    23     1    20 1   
    24    38    21 1   
    25    38    22 1   
    26    38    23 1   
    27     2    24 1   
    28     2    25 1   
    29     6    26 1   
    30     7    27 1   
    31     8    28 1   
    32     9    29 1   
    33    10    30 1   
    34    15    31 1   
    35    16    32 1   
    36    16    33 1   
    37    16    34 1   
    38    17    35 1   
    39    18    36 1   
    40    18    37 1   
@<TRIPOS>SUBSTRUCTURE
     1 47P         1 TEMP              0 ****  ****    0 ROOT
