@<TRIPOS>MOLECULE
47P
   38    40     1     0     0
SMALL
bcc


@<TRIPOS>ATOM
      1 C4           0.0000     0.0000     0.0000 cx         1 47P      -0.083900
      2 C6           3.6010    -2.3230    -2.1250 c3         1 47P       0.111500
      3 N1           4.4990    -0.8030    -3.7660 nc         1 47P      -0.510100
      4 C7           4.4770    -2.0200    -3.3130 cd         1 47P       0.277900
      5 C8           5.2630    -0.4560    -4.8330 ca         1 47P       0.149400
      6 N2           5.2020    -3.0320    -3.8540 ns         1 47P      -0.009400
      7 C9           5.2880     0.8520    -5.3220 ca         1 47P      -0.095000
      8 C10          6.0770     1.1590    -6.4070 ca         1 47P      -0.065000
      9 C11          6.8520     0.1850    -7.0230 ca         1 47P      -0.129000
     10 C12          6.8440    -1.1130    -6.5590 ca         1 47P      -0.017000
     11 C13          6.0520    -1.4440    -5.4620 ca         1 47P      -0.216600
     12 C14          6.0040    -2.8120    -4.9230 c          1 47P       0.619100
     13 O            6.6590    -3.7100    -5.4170 o          1 47P      -0.665500
     14 N            2.9110    -1.0980    -1.6990 n3         1 47P      -0.506600
     15 C1           2.2360    -1.2940    -0.4090 c3         1 47P       0.165500
     16 C            3.2710    -1.6680     0.6550 c3         1 47P      -0.016100
     17 C2           1.5300     0.0000     0.0000 cx         1 47P      -0.107700
     18 C3           0.7650     0.0000     1.3250 cx         1 47P      -0.083900
     19 H1          -0.4680    -0.9390    -0.2690 hc         1 47P       0.045700
     20 H2          -0.4680     0.9390    -0.2690 hc         1 47P       0.045700
     21 H3           2.2350    -1.0730    -3.6830 h1         1 47P       0.008700
     22 H4           1.9890     0.4350    -2.7920 h1         1 47P       0.008700
     23 H5           0.9610    -0.9660    -2.4600 h1         1 47P       0.008700
     24 H6           2.8700    -3.0740    -2.3970 h1         1 47P       0.023200
     25 H7           4.2130    -2.6930    -1.3110 h1         1 47P       0.023200
     26 H8           5.1440    -3.9500    -3.4590 hn         1 47P       0.179500
     27 H9           4.6880     1.6200    -4.8500 ha         1 47P       0.121000
     28 H10          6.0950     2.1740    -6.7840 ha         1 47P       0.102000
     29 H11          7.4670     0.4470    -7.8750 ha         1 47P       0.107000
     30 H12          7.4500    -1.8690    -7.0430 ha         1 47P       0.124000
     31 H14          1.5070    -2.0900    -0.5000 h1         1 47P       0.006700
     32 H15          3.1350    -1.0410     1.5270 hc         1 47P       0.013700
     33 H16          4.2680    -1.5210     0.2570 hc         1 47P       0.013700
     34 H17          3.1430    -2.7070     0.9330 hc         1 47P       0.013700
     35 H18          1.9840     0.9490    -0.2620 hc         1 47P       0.072700
     36 H19          0.7640     0.9390     1.8650 hc         1 47P       0.045700
     37 H20          0.7640    -0.9390     1.8650 hc         1 47P       0.045700
     38 C5           1.9620    -0.6460    -2.7260 c3         1 47P       0.172100
@<TRIPOS>BOND
     1     1    17 1   
     2     1    18 1   
     3     1    19 1   
     4     1    20 1   
     5     2     4 1   
     6     2    14 1   
     7     2    24 1   
     8     2    25 1   
     9     3     4 2   
    10     3     5 1   
    11     4     6 1   
    12     5     7 ar  
    13     5    11 ar  
    14     6    12 1   
    15     6    26 1   
    16     7     8 ar  
    17     7    27 1   
    18     8     9 ar  
    19     8    28 1   
    20     9    10 ar  
    21     9    29 1   
    22    10    11 ar  
    23    10    30 1   
    24    11    12 1   
    25    12    13 2   
    26    14    15 1   
    27    14    38 1   
    28    15    16 1   
    29    15    17 1   
    30    15    31 1   
    31    16    32 1   
    32    16    33 1   
    33    16    34 1   
    34    17    18 1   
    35    17    35 1   
    36    18    36 1   
    37    18    37 1   
    38    21    38 1   
    39    22    38 1   
    40    23    38 1   
@<TRIPOS>SUBSTRUCTURE
     1 47P         1 TEMP              0 ****  ****    0 ROOT
