@<TRIPOS>MOLECULE
molecule
   30    32     1     0     0
SMALL
bcc


@<TRIPOS>ATOM
      1 C4           0.0000     0.0000     0.0000 ca         1 47Q       0.214600
      2 C5          -2.1630     0.0060    -1.2130 c3         1 47Q       0.196500
      3 C6          -2.6650     0.0050    -2.6350 ca         1 47Q       0.395600
      4 N1          -0.6980    -0.0000    -1.2120 nu         1 47Q      -0.821600
      5 C7          -2.9950    -1.1920    -3.2400 ca         1 47Q      -0.235300
      6 C8          -3.4560    -1.1820    -4.5480 ca         1 47Q      -0.095000
      7 N2          -2.7870     1.1470    -3.2830 nb         1 47Q      -0.678000
      8 C9          -3.5660     0.0360    -5.2000 ca         1 47Q      -0.247300
      9 C10         -3.2210     1.1940    -4.5270 ca         1 47Q       0.420200
     10 C11          1.3880     0.0000     0.0000 ca         1 47Q      -0.213000
     11 C12          2.0770     0.0000     1.2020 ca         1 47Q       0.042600
     12 N3           3.4320    -0.0000     1.5250 ns         1 47Q      -0.450100
     13 O            4.6000    -0.0010     3.4790 o          1 47Q      -0.666500
     14 C            3.5490    -0.0000     2.8670 c          1 47Q       0.800500
     15 C1           1.3730    -0.0000     2.4090 ca         1 47Q      -0.062400
     16 N            2.3250    -0.0000     3.4290 ns         1 47Q      -0.449100
     17 C3          -0.6970     0.0060     1.2030 ca         1 47Q      -0.205000
     18 C2          -0.0130    -0.0000     2.4020 ca         1 47Q      -0.077000
     19 H1          -2.5290    -0.8750    -0.7000 h1         1 47Q       0.053200
     20 H2          -2.5210     0.8940    -0.7060 h1         1 47Q       0.053200
     21 H3          -0.1970     0.0080    -2.0780 hn         1 47Q       0.444800
     22 H4          -2.8970    -2.1260    -2.7000 ha         1 47Q       0.144000
     23 H5          -3.7210    -2.1050    -5.0500 ha         1 47Q       0.141000
     24 H6          -3.9220     0.0810    -6.2220 ha         1 47Q       0.141000
     25 H7          -3.3070     2.1500    -5.0290 h4         1 47Q       0.027100
     26 H8           1.9300    -0.0760    -0.9350 ha         1 47Q       0.135000
     27 H9           4.1900    -0.0010     0.8720 hn         1 47Q       0.359500
     28 H10          2.1320    -0.0000     4.4100 hn         1 47Q       0.358500
     29 H11         -1.7800     0.0170     1.1990 ha         1 47Q       0.138000
     30 H12         -0.5590     0.0050     3.3370 ha         1 47Q       0.134000
@<TRIPOS>BOND
     1    13    14 2   
     2    14    12 1   
     3    14    16 1   
     4    12    11 1   
     5    11    10 ar  
     6    11    15 ar  
     7    16    15 1   
     8    10     1 ar  
     9    15    18 ar  
    10     1     4 1   
    11     1    17 ar  
    12    18    17 ar  
    13     4     2 1   
    14     2     3 1   
    15     3     5 ar  
    16     3     7 ar  
    17     5     6 ar  
    18     7     9 ar  
    19     6     8 ar  
    20     9     8 ar  
    21     2    19 1   
    22     2    20 1   
    23     4    21 1   
    24     5    22 1   
    25     6    23 1   
    26     8    24 1   
    27     9    25 1   
    28    10    26 1   
    29    12    27 1   
    30    16    28 1   
    31    17    29 1   
    32    18    30 1   
@<TRIPOS>SUBSTRUCTURE
     1 47Q         1 TEMP              0 ****  ****    0 ROOT
