@<TRIPOS>MOLECULE
47Q
   30    32     1     0     0
SMALL
bcc


@<TRIPOS>ATOM
      1 C4           0.0000     0.0000     0.0000 ca         1 47Q       0.077600
      2 C5          -2.1630     0.0060    -1.2130 c3         1 47Q       0.124500
      3 C6          -2.6650     0.0050    -2.6350 ca         1 47Q       0.343600
      4 N1          -0.6980    -0.0000    -1.2120 nu         1 47Q      -0.421600
      5 C7          -2.9950    -1.1920    -3.2400 ca         1 47Q      -0.200300
      6 C8          -3.4560    -1.1820    -4.5480 ca         1 47Q      -0.069000
      7 N2          -2.7870     1.1470    -3.2830 nb         1 47Q      -0.561000
      8 C9          -3.5660     0.0360    -5.2000 ca         1 47Q      -0.213300
      9 C10         -3.2210     1.1940    -4.5270 ca         1 47Q       0.402200
     10 C11          1.3880     0.0000     0.0000 ca         1 47Q      -0.179000
     11 C12          2.0770     0.0000     1.2020 ca         1 47Q      -0.110400
     12 N3           3.4320    -0.0000     1.5250 ns         1 47Q       0.016900
     13 O            4.6000    -0.0010     3.4790 o          1 47Q      -0.725500
     14 C            3.5490    -0.0000     2.8670 c          1 47Q       0.555500
     15 C1           1.3730    -0.0000     2.4090 ca         1 47Q      -0.223400
     16 N            2.3250    -0.0000     3.4290 ns         1 47Q       0.022900
     17 C3          -0.6970     0.0060     1.2030 ca         1 47Q      -0.189000
     18 C2          -0.0130    -0.0000     2.4020 ca         1 47Q      -0.028000
     19 H1          -2.5290    -0.8750    -0.7000 h1         1 47Q       0.022700
     20 H2          -2.5210     0.8940    -0.7060 h1         1 47Q       0.022700
     21 H3          -0.1970     0.0080    -2.0780 hn         1 47Q       0.295800
     22 H4          -2.8970    -2.1260    -2.7000 ha         1 47Q       0.119000
     23 H5          -3.7210    -2.1050    -5.0500 ha         1 47Q       0.111000
     24 H6          -3.9220     0.0810    -6.2220 ha         1 47Q       0.115000
     25 H7          -3.3070     2.1500    -5.0290 h4         1 47Q      -0.016900
     26 H8           1.9300    -0.0760    -0.9350 ha         1 47Q       0.112000
     27 H9           4.1900    -0.0010     0.8720 hn         1 47Q       0.188500
     28 H10          2.1320    -0.0000     4.4100 hn         1 47Q       0.187500
     29 H11         -1.7800     0.0170     1.1990 ha         1 47Q       0.118000
     30 H12         -0.5590     0.0050     3.3370 ha         1 47Q       0.101000
@<TRIPOS>BOND
     1     1     4 1   
     2     1    10 ar  
     3     1    17 ar  
     4     2     3 1   
     5     2     4 1   
     6     2    19 1   
     7     2    20 1   
     8     3     5 ar  
     9     3     7 ar  
    10     4    21 1   
    11     5     6 ar  
    12     5    22 1   
    13     6     8 ar  
    14     6    23 1   
    15     7     9 ar  
    16     8     9 ar  
    17     8    24 1   
    18     9    25 1   
    19    10    11 ar  
    20    10    26 1   
    21    11    12 1   
    22    11    15 ar  
    23    12    14 1   
    24    12    27 1   
    25    13    14 2   
    26    14    16 1   
    27    15    16 1   
    28    15    18 ar  
    29    16    28 1   
    30    17    18 ar  
    31    17    29 1   
    32    18    30 1   
@<TRIPOS>SUBSTRUCTURE
     1 47Q         1 TEMP              0 ****  ****    0 ROOT
