@<TRIPOS>MOLECULE
47R
   22    21     1     0     0
SMALL
bcc


@<TRIPOS>ATOM
      1 C4           0.0000     0.0000     0.0000 c2         1 47R       0.468200
      2 C5           1.5070     0.0000     0.0000 c3         1 47R      -0.069400
      3 N1          -0.6460     0.0000     1.1210 n2         1 47R      -0.791100
      4 N           -0.6850     0.0050    -1.1860 nh         1 47R      -0.432600
      5 C2          -2.1450     0.1310    -1.1880 c3         1 47R       0.168800
      6 C3          -2.5300     1.6100    -1.2530 c3         1 47R      -0.021100
      7 C1           0.0420    -0.1130    -2.4520 c3         1 47R       0.168800
      8 C            0.2850    -1.5910    -2.7640 c3         1 47R      -0.021100
      9 H1           1.8680    -0.9230    -0.4370 hc         1 47R       0.017367
     10 H2           1.8680     0.8400    -0.5810 hc         1 47R       0.017367
     11 H3           1.8680     0.0830     1.0180 hc         1 47R       0.017367
     12 H4          -0.1450    -0.0020     1.9870 hn         1 47R       0.326400
     13 H5          -2.5510    -0.3860    -2.0490 h1         1 47R       0.026200
     14 H6          -2.5470    -0.3070    -0.2820 h1         1 47R       0.026200
     15 H7          -1.9190     2.1730    -0.5580 hc         1 47R       0.007533
     16 H8          -3.5750     1.7230    -0.9890 hc         1 47R       0.007533
     17 H9          -2.3690     1.9810    -2.2580 hc         1 47R       0.007533
     18 H10          0.9930     0.4010    -2.3720 h1         1 47R       0.026200
     19 H11         -0.5430     0.3330    -3.2480 h1         1 47R       0.026200
     20 H12          1.3230    -1.7360    -3.0390 hc         1 47R       0.007533
     21 H13          0.0570    -2.1870    -1.8890 hc         1 47R       0.007533
     22 H14         -0.3520    -1.8960    -3.5860 hc         1 47R       0.007533
@<TRIPOS>BOND
     1     1     2 1   
     2     1     3 2   
     3     1     4 1   
     4     2     9 1   
     5     2    10 1   
     6     2    11 1   
     7     3    12 1   
     8     4     5 1   
     9     4     7 1   
    10     5     6 1   
    11     5    13 1   
    12     5    14 1   
    13     6    15 1   
    14     6    16 1   
    15     6    17 1   
    16     7     8 1   
    17     7    18 1   
    18     7    19 1   
    19     8    20 1   
    20     8    21 1   
    21     8    22 1   
@<TRIPOS>SUBSTRUCTURE
     1 47R         1 TEMP              0 ****  ****    0 ROOT
