@<TRIPOS>MOLECULE
molecule
   22    21     1     0     0
SMALL
bcc


@<TRIPOS>ATOM
      1 C4           0.0000     0.0000     0.0000 c2         1 47R       0.645200
      2 C5           1.5070     0.0000     0.0000 c3         1 47R      -0.120400
      3 N1          -0.6460     0.0000     1.1210 n2         1 47R      -0.899100
      4 N           -0.6850     0.0050    -1.1860 nh         1 47R      -0.840600
      5 C2          -2.1450     0.1310    -1.1880 c3         1 47R       0.226800
      6 C3          -2.5300     1.6100    -1.2530 c3         1 47R      -0.120100
      7 C1           0.0420    -0.1130    -2.4520 c3         1 47R       0.226800
      8 C            0.2850    -1.5910    -2.7640 c3         1 47R      -0.120100
      9 H1           1.8680    -0.9250    -0.4330 hc         1 47R       0.055700
     10 H2           1.8680     0.0870     1.0180 hc         1 47R       0.055700
     11 H3           1.8680     0.8380    -0.5840 hc         1 47R       0.055700
     12 H4          -1.6470     0.0020     1.1210 hn         1 47R       0.391400
     13 H5          -2.5510    -0.3860    -2.0490 h1         1 47R       0.048200
     14 H6          -2.5470    -0.3070    -0.2820 h1         1 47R       0.048200
     15 H7          -2.6050     1.9180    -2.2890 hc         1 47R       0.041700
     16 H8          -3.4850     1.7560    -0.7620 hc         1 47R       0.041700
     17 H9          -1.7730     2.2020    -0.7530 hc         1 47R       0.041700
     18 H10          0.9930     0.4010    -2.3720 h1         1 47R       0.048200
     19 H11         -0.5430     0.3330    -3.2480 h1         1 47R       0.048200
     20 H12          1.3220    -1.7350    -3.0410 hc         1 47R       0.041700
     21 H13         -0.3530    -1.8960    -3.5840 hc         1 47R       0.041700
     22 H14          0.0580    -2.1870    -1.8890 hc         1 47R       0.041700
@<TRIPOS>BOND
     1     6     5 1   
     2     7     4 1   
     3     7     8 1   
     4     5     4 1   
     5     4     1 1   
     6     1     2 1   
     7     1     3 2   
     8     2     9 1   
     9     2    10 1   
    10     2    11 1   
    11     3    12 1   
    12     5    13 1   
    13     5    14 1   
    14     6    15 1   
    15     6    16 1   
    16     6    17 1   
    17     7    18 1   
    18     7    19 1   
    19     8    20 1   
    20     8    21 1   
    21     8    22 1   
@<TRIPOS>SUBSTRUCTURE
     1 47R         1 TEMP              0 ****  ****    0 ROOT
