@<TRIPOS>MOLECULE
molecule
   27    27     1     0     0
SMALL
bcc


@<TRIPOS>ATOM
      1 C4           0.0000     0.0000     0.0000 ca         1 47S      -0.074000
      2 C5           1.3800     0.0000     0.0000 ca         1 47S      -0.170000
      3 C6           2.0790     0.0000     1.2080 ca         1 47S      -0.126600
      4 N1           4.2320    -0.0040     0.0430 ns         1 47S      -0.526300
      5 C7           1.3780     0.0030     2.4140 ca         1 47S      -0.130000
      6 C8           3.5580    -0.0020     1.2100 c          1 47S       0.686700
      7 N2           5.5990    -0.0060     0.0450 nz         1 47S      -0.533600
      8 O            4.1630    -0.0000     2.2630 o          1 47S      -0.559100
      9 C3          -0.6950     0.0020     1.1950 ca         1 47S      -0.154000
     10 C2          -0.0090     0.0040     2.4040 ca         1 47S       0.211600
     11 N           -0.7160     0.0060     3.6090 nh         1 47S      -0.721000
     12 C1          -2.1810     0.0080     3.5990 c3         1 47S       0.222600
     13 C            0.0070     0.0070     4.8830 c3         1 47S       0.222600
     14 H1          -0.5400    -0.0010    -0.9390 ha         1 47S       0.151000
     15 H2           1.9210    -0.0020    -0.9380 ha         1 47S       0.106000
     16 H3           3.7340     0.0350    -0.8240 hn         1 47S       0.393500
     17 H4           1.9150     0.0040     3.3550 ha         1 47S       0.164000
     18 H5           5.9330     0.8140     0.5130 hn         1 47S       0.467800
     19 H6           5.9300    -0.8200     0.5230 hn         1 47S       0.467800
     20 H7          -1.7780     0.0020     1.1890 ha         1 47S       0.156000
     21 H8          -2.5380     0.8910     3.0840 h1         1 47S       0.046700
     22 H9          -2.5490     0.0100     4.6180 h1         1 47S       0.046700
     23 H10         -2.5400    -0.8780     3.0870 h1         1 47S       0.046700
     24 H11          0.6300     0.8910     4.9440 h1         1 47S       0.046700
     25 H12         -0.7030     0.0080     5.7010 h1         1 47S       0.046700
     26 H13          0.6290    -0.8780     4.9460 h1         1 47S       0.046700
     27 H23          5.9340     0.0040    -0.8970 hn         1 47S       0.467800
@<TRIPOS>BOND
     1     1     2 ar  
     2     1     9 ar  
     3     2     3 ar  
     4     4     7 1   
     5     4     6 1   
     6     9    10 ar  
     7     3     6 1   
     8     3     5 ar  
     9     6     8 2   
    10    10     5 ar  
    11    10    11 1   
    12    13    11 1   
    13    11    12 1   
    14     1    14 1   
    15     2    15 1   
    16     4    16 1   
    17     5    17 1   
    18     7    18 1   
    19     7    19 1   
    20     9    20 1   
    21    12    21 1   
    22    12    22 1   
    23    12    23 1   
    24    13    24 1   
    25    13    25 1   
    26    13    26 1   
    27    27     7 1   
@<TRIPOS>SUBSTRUCTURE
     1 47S         1 TEMP              0 ****  ****    0 ROOT
