@<TRIPOS>MOLECULE
47S
   27    27     1     0     0
SMALL
bcc


@<TRIPOS>ATOM
      1 C4           0.0000     0.0000     0.0000 ca         1 47S      -0.036000
      2 C5           1.3800     0.0000     0.0000 ca         1 47S      -0.149000
      3 C6           2.0790     0.0000     1.2080 ca         1 47S      -0.145600
      4 N1           4.2320    -0.0040     0.0430 ns         1 47S      -0.393300
      5 C7           1.3780     0.0030     2.4140 ca         1 47S      -0.105000
      6 C8           3.5580    -0.0020     1.2100 c          1 47S       0.652700
      7 N2           5.5990    -0.0060     0.0450 nz         1 47S       0.287400
      8 O            4.1630    -0.0000     2.2630 o          1 47S      -0.592100
      9 C3          -0.6950     0.0020     1.1950 ca         1 47S      -0.134000
     10 C2          -0.0090     0.0040     2.4040 ca         1 47S       0.078600
     11 N           -0.7160     0.0060     3.6090 nh         1 47S      -0.366000
     12 C1          -2.1810     0.0080     3.5990 c3         1 47S       0.203600
     13 C            0.0070     0.0070     4.8830 c3         1 47S       0.203600
     14 H1          -0.5400    -0.0010    -0.9390 ha         1 47S       0.115000
     15 H2           1.9210    -0.0020    -0.9380 ha         1 47S       0.084000
     16 H3           3.7340     0.0350    -0.8240 hn         1 47S       0.279500
     17 H4           1.9150     0.0040     3.3550 ha         1 47S       0.142000
     18 H5           5.9330     0.8140     0.5130 hn         1 47S       0.218467
     19 H6           5.9300    -0.8200     0.5230 hn         1 47S       0.218467
     20 H7          -1.7780     0.0020     1.1890 ha         1 47S       0.131000
     21 H8          -2.5380     0.8910     3.0840 h1         1 47S       0.014533
     22 H9          -2.5490     0.0100     4.6180 h1         1 47S       0.014533
     23 H10         -2.5400    -0.8780     3.0870 h1         1 47S       0.014533
     24 H11          0.6300     0.8910     4.9440 h1         1 47S       0.014533
     25 H12         -0.7030     0.0080     5.7010 h1         1 47S       0.014533
     26 H13          0.6290    -0.8780     4.9460 h1         1 47S       0.014533
     27 H23          5.9340     0.0040    -0.8970 hn         1 47S       0.218467
@<TRIPOS>BOND
     1     1     2 ar  
     2     1     9 ar  
     3     1    14 1   
     4     2     3 ar  
     5     2    15 1   
     6     3     5 ar  
     7     3     6 1   
     8     4     6 1   
     9     4     7 1   
    10     4    16 1   
    11     5    10 ar  
    12     5    17 1   
    13     6     8 2   
    14     7    18 1   
    15     7    19 1   
    16     7    27 1   
    17     9    10 ar  
    18     9    20 1   
    19    10    11 1   
    20    11    12 1   
    21    11    13 1   
    22    12    21 1   
    23    12    22 1   
    24    12    23 1   
    25    13    24 1   
    26    13    25 1   
    27    13    26 1   
@<TRIPOS>SUBSTRUCTURE
     1 47S         1 TEMP              0 ****  ****    0 ROOT
