@<TRIPOS>MOLECULE
molecule
   36    37     1     0     0
SMALL
bcc


@<TRIPOS>ATOM
      1 C4           0.0000     0.0000     0.0000 c3         1 47T       0.119700
      2 C5           1.5300     0.0000     0.0000 c3         1 47T      -0.094400
      3 C6           2.0400     0.0000     1.4420 c3         1 47T      -0.072400
      4 C7          -1.7110    -0.4950    -1.6640 c          1 47T       0.654100
      5 C8          -2.2130    -0.4950    -3.0850 c3         1 47T       0.060100
      6 C9          -1.3460    -1.4330    -3.9460 c3         1 47T      -0.112400
      7 C10         -2.3500    -2.4680    -4.5090 c3         1 47T      -0.113400
      8 C11         -3.7000    -1.7190    -4.3700 c3         1 47T       0.122400
      9 O           -2.4060    -0.9370    -0.7750 o          1 47T      -0.578100
     10 O1          -3.5600    -0.9940    -3.1270 os         1 47T      -0.374600
     11 N           -0.4890    -0.0010    -1.3820 ns         1 47T      -0.589900
     12 C3          -0.5100     1.2490     0.7210 c3         1 47T      -0.094400
     13 C2          -0.0000     1.2500     2.1630 c3         1 47T      -0.072400
     14 C1           1.5290     1.2500     2.1630 c3         1 47T      -0.077700
     15 C            2.0400     1.2500     3.6060 c3         1 47T      -0.088100
     16 H1          -0.3590    -0.8830     0.5150 h1         1 47T       0.082700
     17 H2           1.8900    -0.8860    -0.5090 hc         1 47T       0.047200
     18 H3           1.8900     0.8860    -0.5090 hc         1 47T       0.047200
     19 H4           1.6750    -0.8830     1.9530 hc         1 47T       0.046200
     20 H5           3.1230     0.0020     1.4410 hc         1 47T       0.046200
     21 H6          -2.1810     0.5090    -3.4920 h1         1 47T       0.056700
     22 H7          -0.8800    -0.8810    -4.7540 hc         1 47T       0.055700
     23 H8          -0.6000    -1.9260    -3.3340 hc         1 47T       0.055700
     24 H9          -2.1360    -2.6840    -5.5490 hc         1 47T       0.058700
     25 H10         -2.3480    -3.3710    -3.9100 hc         1 47T       0.058700
     26 H11         -4.5200    -2.4250    -4.3080 h1         1 47T       0.053200
     27 H12         -3.8400    -1.0330    -5.1960 h1         1 47T       0.053200
     28 H13          0.0760     0.3830    -2.1120 hn         1 47T       0.308500
     29 H14         -0.1470     2.1330     0.2100 hc         1 47T       0.047200
     30 H15         -1.5930     1.2460     0.7220 hc         1 47T       0.047200
     31 H16         -0.3600     2.1370     2.6710 hc         1 47T       0.046200
     32 H17         -0.3600     0.3640     2.6720 hc         1 47T       0.046200
     33 H18          1.8890     2.1330     1.6480 hc         1 47T       0.049700
     34 H19          1.6790     2.1350     4.1160 hc         1 47T       0.034367
     35 H20          1.6790     0.3660     4.1170 hc         1 47T       0.034367
     36 H21          3.1230     1.2500     3.6060 hc         1 47T       0.034367
@<TRIPOS>BOND
     1     7     8 1   
     2     7     6 1   
     3     8    10 1   
     4    10     5 1   
     5     6     5 1   
     6     5     4 1   
     7     4     9 2   
     8     4    11 1   
     9    11     1 1   
    10    12     1 1   
    11    12    13 1   
    12     1     2 1   
    13     2     3 1   
    14    13    14 1   
    15    14     3 1   
    16    14    15 1   
    17     1    16 1   
    18     2    17 1   
    19     2    18 1   
    20     3    19 1   
    21     3    20 1   
    22     5    21 1   
    23     6    22 1   
    24     6    23 1   
    25     7    24 1   
    26     7    25 1   
    27     8    26 1   
    28     8    27 1   
    29    11    28 1   
    30    12    29 1   
    31    12    30 1   
    32    13    31 1   
    33    13    32 1   
    34    14    33 1   
    35    15    34 1   
    36    15    35 1   
    37    15    36 1   
@<TRIPOS>SUBSTRUCTURE
     1 47T         1 TEMP              0 ****  ****    0 ROOT
