@<TRIPOS>MOLECULE
47T
   36    37     1     0     0
SMALL
bcc


@<TRIPOS>ATOM
      1 C4           0.0000     0.0000     0.0000 c3         1 47T       0.019700
      2 C5           1.5300     0.0000     0.0000 c3         1 47T      -0.039900
      3 C6           2.0400     0.0000     1.4420 c3         1 47T      -0.016900
      4 C7          -1.7110    -0.4950    -1.6640 c          1 47T       0.562100
      5 C8          -2.2130    -0.4950    -3.0850 c3         1 47T       0.106100
      6 C9          -1.3460    -1.4330    -3.9460 c3         1 47T      -0.056400
      7 C10         -2.3500    -2.4680    -4.5090 c3         1 47T      -0.055400
      8 C11         -3.7000    -1.7190    -4.3700 c3         1 47T       0.204400
      9 O           -2.4060    -0.9370    -0.7750 o          1 47T      -0.616100
     10 O1          -3.5600    -0.9940    -3.1270 os         1 47T      -0.363600
     11 N           -0.4890    -0.0010    -1.3820 ns         1 47T      -0.201900
     12 C3          -0.5100     1.2490     0.7210 c3         1 47T      -0.039900
     13 C2          -0.0000     1.2500     2.1630 c3         1 47T      -0.016900
     14 C1           1.5290     1.2500     2.1630 c3         1 47T      -0.056700
     15 C            2.0400     1.2500     3.6060 c3         1 47T       0.008900
     16 H1          -0.3590    -0.8830     0.5150 h1         1 47T       0.061700
     17 H2           1.8900    -0.8860    -0.5090 hc         1 47T       0.019950
     18 H3           1.8900     0.8860    -0.5090 hc         1 47T       0.019950
     19 H4           1.6750    -0.8830     1.9530 hc         1 47T       0.018950
     20 H5           3.1230     0.0020     1.4410 hc         1 47T       0.018950
     21 H6          -2.1810     0.5090    -3.4920 h1         1 47T       0.020700
     22 H7          -0.8800    -0.8810    -4.7540 hc         1 47T       0.022700
     23 H8          -0.6000    -1.9260    -3.3340 hc         1 47T       0.022700
     24 H9          -2.1360    -2.6840    -5.5490 hc         1 47T       0.026700
     25 H10         -2.3480    -3.3710    -3.9100 hc         1 47T       0.026700
     26 H11         -4.5200    -2.4250    -4.3080 h1         1 47T       0.011200
     27 H12         -3.8400    -1.0330    -5.1960 h1         1 47T       0.011200
     28 H13          0.0760     0.3830    -2.1120 hn         1 47T       0.170500
     29 H14         -0.1470     2.1330     0.2100 hc         1 47T       0.019950
     30 H15         -1.5930     1.2460     0.7220 hc         1 47T       0.019950
     31 H16         -0.3600     2.1370     2.6710 hc         1 47T       0.018950
     32 H17         -0.3600     0.3640     2.6720 hc         1 47T       0.018950
     33 H18          1.8890     2.1330     1.6480 hc         1 47T       0.026700
     34 H19          1.6790     2.1350     4.1160 hc         1 47T       0.002700
     35 H20          1.6790     0.3660     4.1170 hc         1 47T       0.002700
     36 H21          3.1230     1.2500     3.6060 hc         1 47T       0.002700
@<TRIPOS>BOND
     1     1     2 1   
     2     1    11 1   
     3     1    12 1   
     4     1    16 1   
     5     2     3 1   
     6     2    17 1   
     7     2    18 1   
     8     3    14 1   
     9     3    19 1   
    10     3    20 1   
    11     4     5 1   
    12     4     9 2   
    13     4    11 1   
    14     5     6 1   
    15     5    10 1   
    16     5    21 1   
    17     6     7 1   
    18     6    22 1   
    19     6    23 1   
    20     7     8 1   
    21     7    24 1   
    22     7    25 1   
    23     8    10 1   
    24     8    26 1   
    25     8    27 1   
    26    11    28 1   
    27    12    13 1   
    28    12    29 1   
    29    12    30 1   
    30    13    14 1   
    31    13    31 1   
    32    13    32 1   
    33    14    15 1   
    34    14    33 1   
    35    15    34 1   
    36    15    35 1   
    37    15    36 1   
@<TRIPOS>SUBSTRUCTURE
     1 47T         1 TEMP              0 ****  ****    0 ROOT
