@<TRIPOS>MOLECULE
47U
   34    35     1     0     0
SMALL
bcc


@<TRIPOS>ATOM
      1 C4           0.0000     0.0000     0.0000 c3         1 47U       0.095200
      2 C5           2.3040     0.0000     1.0930 cc         1 47U      -0.304600
      3 C6           1.8430     0.0010     2.5280 c3         1 47U       0.009900
      4 N1           2.3030     0.0010    -1.0900 na         1 47U       0.495400
      5 C7           1.6820     1.4210     3.0040 c          1 47U       0.533100
      6 C8           1.2280     2.9780     4.7390 ca         1 47U       0.367200
      7 N2           1.2750     1.6680     4.2650 ns         1 47U      -0.128400
      8 C9           0.9090     3.2180     6.0700 ca         1 47U      -0.274300
      9 C10          0.8710     4.5220     6.5300 ca         1 47U      -0.039000
     10 C11          1.1550     5.5470     5.6370 ca         1 47U      -0.260300
     11 C12          1.4640     5.2360     4.3270 ca         1 47U       0.433200
     12 N3           1.4920     3.9820     3.9180 nb         1 47U      -0.558000
     13 O            1.9190     2.3430     2.2520 o          1 47U      -0.556100
     14 C3           1.5060     0.0000     0.0000 cd         1 47U      -0.217600
     15 C2           1.8540    -0.0020    -2.4850 c3         1 47U       0.023600
     16 N            3.6330     0.0050    -0.6520 nd         1 47U      -0.653800
     17 C1           3.6330     0.0070     0.6570 cc         1 47U       0.386600
     18 C            4.8530     0.0140     1.5410 c3         1 47U      -0.006400
     19 H1          -0.3610     0.9970    -0.2210 hc         1 47U       0.010700
     20 H2          -0.3610    -0.6900    -0.7530 hc         1 47U       0.010700
     21 H3          -0.3610    -0.3070     0.9740 hc         1 47U       0.010700
     22 H4           0.8930    -0.5140     2.6020 hc         1 47U       0.026200
     23 H5           2.5770    -0.5050     3.1440 hc         1 47U       0.026200
     24 H6           0.9840     0.9120     4.8530 hn         1 47U       0.167500
     25 H7           0.6920     2.3940     6.7390 ha         1 47U       0.113000
     26 H8           0.6260     4.7390     7.5630 ha         1 47U       0.105000
     27 H9           1.1350     6.5790     5.9640 ha         1 47U       0.114000
     28 H10          1.6860     6.0320     3.6270 h4         1 47U      -0.018900
     29 H11          1.3170    -0.9200    -2.6890 h1         1 47U       0.019700
     30 H12          1.2000     0.8450    -2.6550 h1         1 47U       0.019700
     31 H13          2.7130     0.0680    -3.1410 h1         1 47U       0.019700
     32 H14          5.7400    -0.1200     0.9330 hc         1 47U       0.010700
     33 H15          4.9140     0.9610     2.0640 hc         1 47U       0.010700
     34 H16          4.7830    -0.7930     2.2600 hc         1 47U       0.010700
@<TRIPOS>BOND
     1     1    14 1   
     2     1    19 1   
     3     1    20 1   
     4     1    21 1   
     5     2     3 1   
     6     2    14 2   
     7     2    17 1   
     8     3     5 1   
     9     3    22 1   
    10     3    23 1   
    11     4    14 1   
    12     4    15 1   
    13     4    16 1   
    14     5     7 1   
    15     5    13 2   
    16     6     7 1   
    17     6     8 ar  
    18     6    12 ar  
    19     7    24 1   
    20     8     9 ar  
    21     8    25 1   
    22     9    10 ar  
    23     9    26 1   
    24    10    11 ar  
    25    10    27 1   
    26    11    12 ar  
    27    11    28 1   
    28    15    29 1   
    29    15    30 1   
    30    15    31 1   
    31    16    17 2   
    32    17    18 1   
    33    18    32 1   
    34    18    33 1   
    35    18    34 1   
@<TRIPOS>SUBSTRUCTURE
     1 47U         1 TEMP              0 ****  ****    0 ROOT
