@<TRIPOS>MOLECULE
molecule
   56    59     1     0     0
SMALL
bcc


@<TRIPOS>ATOM
      1 C1           0.0000     0.0000     0.0000 c3         1 47W       0.128700
      2 O2           1.4280     0.0000     0.0000 os         1 47W      -0.379900
      3 C3           2.0460     0.0000     1.2110 ca         1 47W       0.185100
      4 C4           1.2920     0.0020     2.3740 ca         1 47W      -0.245000
      5 C5           1.9250     0.0020     3.6080 ca         1 47W       0.265100
      6 O6           1.1880     0.0030     4.7500 os         1 47W      -0.240900
      7 C7           1.9070     0.0030     5.9850 c3         1 47W       0.152500
      8 C8           0.9540     0.0040     7.1060 c1         1 47W      -0.247100
      9 C9           0.1890    -0.0150     7.9970 cg         1 47W      -0.050000
     10 C10         -0.7740     0.3190     9.2960 ca         1 47W       0.032000
     11 C11         -0.4750    -0.2060    10.5500 ca         1 47W      -0.124000
     12 C12         -1.3350     0.1180    11.6100 ca         1 47W      -0.075000
     13 C13         -2.2100     0.8100    11.2600 ca         1 47W      -0.077000
     14 C14         -3.2070     1.1750    12.5320 ca         1 47W      -0.170300
     15 C15         -4.0390     1.8270    12.2250 ca         1 47W       0.372200
     16 N16         -4.8290     1.9120    11.1150 nb         1 47W      -0.622000
     17 C17         -4.2400     1.6170     9.9340 ca         1 47W       0.431200
     18 C18         -2.5320     1.3640     9.9570 ca         1 47W      -0.164300
     19 C19         -1.8360     1.1510     8.9090 ca         1 47W      -0.083000
     20 C20          3.3110     0.0010     3.6750 ca         1 47W      -0.244000
     21 C21          4.0610     0.0010     2.5140 ca         1 47W      -0.083000
     22 C22          3.4320    -0.0050     1.2840 ca         1 47W      -0.256300
     23 C23          4.2530    -0.0120     0.0200 c3         1 47W       0.162100
     24 N24          4.3240     1.3490    -0.5260 nx         1 47W      -0.631400
     25 C26          5.0200     1.3230    -1.8190 c3         1 47W      -0.152700
     26 C27          5.0940     2.7410    -2.3870 c3         1 47W       0.086300
     27 N28          5.8280     3.6060    -1.4540 ny         1 47W      -0.891000
     28 C31          5.1300     3.6320    -0.1610 c3         1 47W       0.086300
     29 C32          5.0570     2.2130     0.4080 c3         1 47W      -0.152700
     30 HN24         3.3990     1.7100    -0.6560 hn         1 47W       0.437800
     31 HN28         6.7780     3.4920    -1.7460 hn         1 47W       0.478300
     32 HN2A         5.4900     4.5170    -1.6930 hn         1 47W       0.478300
     33 H1           0.0910     0.9560     0.5020 h1         1 47W       0.066367
     34 H1A         -0.5880     0.1580    -0.8960 h1         1 47W       0.066367
     35 H1B         -0.4360    -0.6950     0.7070 h1         1 47W       0.066367
     36 H4           0.2890     0.2080     2.0190 ha         1 47W       0.178000
     37 H7           2.2180    -0.9410     6.4160 h1         1 47W       0.100700
     38 H7A          2.5920     0.7220     6.4170 h1         1 47W       0.100700
     39 H11          0.3940    -0.8420    10.6700 ha         1 47W       0.149000
     40 H12         -1.1110    -0.5430    12.4390 ha         1 47W       0.162000
     41 H14         -2.9320     0.8590    13.5310 ha         1 47W       0.156000
     42 H15         -4.7660     1.7840    13.0280 h4         1 47W      -0.006900
     43 H17         -4.6690     1.8390     8.9650 h4         1 47W       0.045100
     44 H19         -2.0150     1.8950     8.1430 ha         1 47W       0.173000
     45 H20          3.8680    -0.3950     4.5160 ha         1 47W       0.171000
     46 H21          4.9730    -0.4920     2.8290 ha         1 47W       0.167000
     47 H23          5.2040    -0.5070     0.1780 hx         1 47W       0.144700
     48 H23A         3.5820    -0.6810    -0.5070 hx         1 47W       0.144700
     49 H26          5.3410     2.1320    -2.4640 hx         1 47W       0.230200
     50 H26A         5.8850     1.0440    -1.2300 hx         1 47W       0.230200
     51 H27          5.1430     2.8010    -3.4680 hx         1 47W       0.196950
     52 H27A         4.1770     3.3180    -2.3750 hx         1 47W       0.196950
     53 H31          5.8280     3.9960     0.5840 hx         1 47W       0.196950
     54 H31A         4.1960     3.9180    -0.6270 hx         1 47W       0.196950
     55 H32          5.6590     1.4510     0.8880 hx         1 47W       0.230200
     56 H32A         4.9140     3.2110     0.0090 hx         1 47W       0.230200
@<TRIPOS>BOND
     1     1     2 1
     2     1    33 1
     3     1    34 1
     4     1    35 1
     5     2     3 1
     6     3     4 ar
     7     3    22 ar
     8     4     5 ar
     9     4    36 1
    10     5     6 1
    11     5    20 ar
    12     6     7 1
    13     7     8 1
    14     7    37 1
    15     7    38 1
    16     8     9 3
    17     9    10 1
    18    10    11 ar
    19    10    19 ar
    20    11    12 ar
    21    11    39 1
    22    12    13 ar
    23    12    40 1
    24    13    14 ar
    25    13    18 ar
    26    14    15 ar
    27    14    41 1
    28    15    16 ar
    29    15    42 1
    30    16    17 ar
    31    17    18 ar
    32    17    43 1
    33    18    19 ar
    34    19    44 1
    35    20    21 ar
    36    20    45 1
    37    21    22 ar
    38    21    46 1
    39    22    23 1
    40    23    24 1
    41    23    47 1
    42    23    48 1
    43    24    25 1
    44    24    29 1
    45    24    30 1
    46    25    26 1
    47    25    49 1
    48    25    50 1
    49    26    27 1
    50    26    51 1
    51    26    52 1
    52    27    28 1
    53    27    31 1
    54    27    32 1
    55    28    29 1
    56    28    53 1
    57    28    54 1
    58    29    55 1
    59    29    56 1
@<TRIPOS>SUBSTRUCTURE
     1 47W         1 TEMP              0 ****  ****    0 ROOT
