@<TRIPOS>MOLECULE
47X
   30    32     1     0     0
SMALL
bcc


@<TRIPOS>ATOM
      1 CAA         0.0800   -0.3560    0.0020 ca        1 47X     -0.246000
      2 CAB         1.4620   -0.0810   -0.0270 ca        1 47X      0.177100
      3 CAC         2.1550    0.2970    1.1300 ca        1 47X     -0.191000
      4 CAD        -0.6120   -0.2530    1.1980 ca        1 47X     -0.008000
      5 CAE         0.0470    0.1230    2.3800 ca        1 47X     -0.252600
      6 CAF         1.4240    0.3930    2.3220 ca        1 47X      0.170100
      7 OAG         2.1540    0.7700    3.4380 os        1 47X     -0.215200
      8 CAH         1.4630    0.9060    4.6170 cc        1 47X      0.084100
      9 CAI         0.1370    0.6800    4.7870 cd        1 47X     -0.202400
     10 CAJ        -0.6870    0.2290    3.6510 c         1 47X      0.602900
     11 CAK        -0.4720    0.8870    6.0980 ca        1 47X     -0.034800
     12 CAL        -0.0450    1.9620    6.8930 ca        1 47X     -0.134000
     13 CAM        -0.6030    2.1560    8.1610 ca        1 47X      0.107100
     14 CAN        -1.5980    1.2730    8.6330 ca        1 47X      0.046100
     15 CAO        -2.0270    0.2100    7.8340 ca        1 47X     -0.171000
     16 CAP        -1.4650    0.0210    6.5740 ca        1 47X     -0.094000
     17 OAQ        -2.0930    1.5290    9.8950 oh        1 47X     -0.516100
     18 OAR        -0.1380    3.2190    8.8980 oh        1 47X     -0.497100
     19 OAS         2.2050   -0.1670   -1.1770 oh        1 47X     -0.488100
     20 OAT        -1.8920   -0.0460    3.7350 o         1 47X     -0.547100
     21 HAA        -0.4400   -0.6500   -0.9200 ha        1 47X      0.144000
     22 HAC         3.2320    0.5110    1.1030 ha        1 47X      0.174000
     23 HAD        -1.6940   -0.4640    1.2450 ha        1 47X      0.164000
     24 HAH         2.1700    1.2260    5.4040 h4        1 47X      0.188000
     25 HAL         0.7160    2.6700    6.5340 ha        1 47X      0.149000
     26 HAO        -2.8080   -0.4720    8.1990 ha        1 47X      0.138000
     27 HAP        -1.8190   -0.8060    5.9380 ha        1 47X      0.159000
     28 HOAQ       -2.8070    0.8990   10.0650 ho        1 47X      0.430000
     29 HOAR       -0.6410    3.2500    9.7260 ho        1 47X      0.437000
     30 HOAS        1.6140   -0.4320   -1.8990 ho        1 47X      0.427000
@<TRIPOS>BOND
     1    1    2 ar  
     2    1    4 ar  
     3    1   21 1   
     4    2    3 ar  
     5    2   19 1   
     6    3    6 ar  
     7    3   22 1   
     8    4    5 ar  
     9    4   23 1   
    10    5    6 ar  
    11    5   10 1   
    12    6    7 1   
    13    7    8 1   
    14    8    9 2   
    15    8   24 1   
    16    9   10 1   
    17    9   11 1   
    18   10   20 2   
    19   11   12 ar  
    20   11   16 ar  
    21   12   13 ar  
    22   12   25 1   
    23   13   14 ar  
    24   13   18 1   
    25   14   15 ar  
    26   14   17 1   
    27   15   16 ar  
    28   15   26 1   
    29   16   27 1   
    30   17   28 1   
    31   18   29 1   
    32   19   30 1   
@<TRIPOS>SUBSTRUCTURE
     1 47X         1 TEMP              0 ****  ****    0 ROOT
