@<TRIPOS>MOLECULE
molecule
   30    32     1     0     0
SMALL
bcc


@<TRIPOS>ATOM
      1 CAA          0.0000     0.0000     0.0000 ca         1 47X      -0.186000
      2 CAB          1.3930     0.0000     0.0000 ca         1 47X       0.161100
      3 CAC          2.1000     0.0000     1.1900 ca         1 47X      -0.186000
      4 CAD         -0.6890     0.0110     1.1800 ca         1 47X      -0.028000
      5 CAE          0.0100     0.0200     2.3870 ca         1 47X      -0.236600
      6 CAF          1.4170     0.0010     2.3990 ca         1 47X       0.162100
      7 OAG          2.0900    -0.0090     3.5650 os         1 47X      -0.205200
      8 CAH          1.4930     0.3100     4.7140 cc         1 47X       0.094100
      9 CAI          0.1430     0.3580     4.8600 cd         1 47X      -0.238400
     10 CAJ         -0.6940     0.0460     3.6830 c          1 47X       0.590900
     11 CAK         -0.4690     0.7010     6.1660 ca         1 47X      -0.028800
     12 CAL         -0.2870     1.9710     6.7120 ca         1 47X      -0.148000
     13 CAM         -0.8620     2.2870     7.9290 ca         1 47X       0.089100
     14 CAN         -1.6210     1.3370     8.6090 ca         1 47X       0.096100
     15 CAO         -1.8020     0.0750     8.0650 ca         1 47X      -0.153000
     16 CAP         -1.2350    -0.2430     6.8470 ca         1 47X      -0.090000
     17 OAQ         -2.1850     1.6490     9.8060 oh         1 47X      -0.509100
     18 OAR         -0.6850     3.5240     8.4640 oh         1 47X      -0.511100
     19 OAS          2.0650    -0.0010    -1.1800 oh         1 47X      -0.517100
     20 OAT         -1.8930    -0.1560     3.7760 o          1 47X      -0.526100
     21 HAA         -0.5390    -0.0000    -0.9390 ha         1 47X       0.151000
     22 HAC          3.1830    -0.0000     1.1780 ha         1 47X       0.159000
     23 HAD         -1.7720     0.0110     1.1780 ha         1 47X       0.162000
     24 HAH          2.1140     0.5380     5.5720 h4         1 47X       0.191000
     25 HAL          0.3030     2.7090     6.1830 ha         1 47X       0.141000
     26 HAO         -2.3950    -0.6610     8.5940 ha         1 47X       0.145000
     27 HAP         -1.3790    -1.2310     6.4250 ha         1 47X       0.147000
     28 HOAQ        -1.7030     1.2300    10.4990 ho         1 47X       0.422000
     29 HOAR        -1.1870     4.1540     7.9740 ho         1 47X       0.423000
     30 HOAS         2.2590     0.8870    -1.4320 ho         1 47X       0.428000
@<TRIPOS>BOND
     1     4     1 ar
     2     1     2 ar
     3     1    21 1
     4     3     2 ar
     5     2    19 1
     6     6     3 ar
     7     3    22 1
     8     5     4 ar
     9     4    23 1
    10    10     5 1
    11     5     6 ar
    12     7     6 1
    13     8     7 1
    14     9     8 2
    15     8    24 1
    16    11     9 1
    17     9    10 1
    18    20    10 2
    19    16    11 ar
    20    12    11 ar
    21    13    12 ar
    22    12    25 1
    23    14    13 ar
    24    18    13 1
    25    17    14 1
    26    14    15 ar
    27    15    16 ar
    28    15    26 1
    29    16    27 1
    30    17    28 1
    31    18    29 1
    32    19    30 1
@<TRIPOS>SUBSTRUCTURE
     1 47X         1 TEMP              0 ****  ****    0 ROOT
