@<TRIPOS>MOLECULE
molecule
   37    36     1     0     0
SMALL
bcc


@<TRIPOS>ATOM
      1 C8           0.0000     0.0000     0.0000 c3         1 480      -0.092100
      2 C24         11.8570     0.1290     6.7470 c3         1 480       0.131400
      3 C7           1.5300     0.0000     0.0000 c3         1 480      -0.084400
      4 C6           2.0400     0.0000     1.4420 c3         1 480      -0.082400
      5 C5           3.5700     0.0000     1.4410 c3         1 480      -0.080400
      6 C4           4.0800     0.0010     2.8850 c3         1 480      -0.084400
      7 C3           5.6110     0.0010     2.8840 c3         1 480      -0.072400
      8 C2           6.1210     0.0010     4.3260 c3         1 480      -0.125400
      9 C21          9.7490     0.0020     5.4120 c3         1 480       0.136400
     10 C1           7.6280     0.0020     4.3260 c          1 480       0.632100
     11 C22         10.3340     0.0020     6.8260 c3         1 480       0.149100
     12 O19          8.2320     0.0020     3.2790 o          1 480      -0.551000
     13 O23          9.9910    -1.2190     7.4830 oh         1 480      -0.591800
     14 O20          8.2990     0.0020     5.4890 os         1 480      -0.427900
     15 H1          -0.3610     0.8880     0.5050 hc         1 480       0.032700
     16 H2          -0.3610    -0.0070    -1.0210 hc         1 480       0.032700
     17 H3          -0.3610    -0.8810     0.5160 hc         1 480       0.032700
     18 H4          12.2680    -0.7510     6.2670 h1         1 480       0.032700
     19 H5          12.1170     1.0090     6.1720 h1         1 480       0.032700
     20 H6           1.8910     0.8840    -0.5110 hc         1 480       0.040700
     21 H7           1.8910    -0.8840    -0.5110 hc         1 480       0.040700
     22 H8           1.6790     0.8840     1.9530 hc         1 480       0.040700
     23 H9           1.6790    -0.8850     1.9530 hc         1 480       0.040700
     24 H10          3.9310     0.8850     0.9300 hc         1 480       0.044200
     25 H11          3.9310    -0.8840     0.9310 hc         1 480       0.044200
     26 H12          3.7190     0.8860     3.3950 hc         1 480       0.041200
     27 H13          3.7200    -0.8830     3.3960 hc         1 480       0.041200
     28 H14          5.9720     0.8860     2.3730 hc         1 480       0.058700
     29 H15          5.9720    -0.8830     2.3730 hc         1 480       0.058700
     30 H16          5.7590     0.8860     4.8370 hc         1 480       0.072200
     31 H17          5.7600    -0.8830     4.8370 hc         1 480       0.072200
     32 H18         10.0830    -0.8820     4.8830 h1         1 480       0.058700
     33 H19         10.0820     0.8870     4.8840 h1         1 480       0.058700
     34 H20          9.9310     0.8390     7.3840 h1         1 480       0.052700
     35 H21         13.3200     0.4180     8.0160 ho         1 480       0.407000
     36 H22          9.5030    -1.0270     8.2670 ho         1 480       0.412000
     37 O25         12.3940     0.2460     8.0670 oh         1 480      -0.605800
@<TRIPOS>BOND
     1     4     3 1   
     2     4     5 1   
     3     3     1 1   
     4     5     6 1   
     5     6     7 1   
     6     7     8 1   
     7     8    10 1   
     8    12    10 2   
     9    10    14 1   
    10    14     9 1   
    11     9    11 1   
    12     2    11 1   
    13     2    37 1   
    14    11    13 1   
    15     1    15 1   
    16     1    16 1   
    17     1    17 1   
    18     2    18 1   
    19     2    19 1   
    20     3    20 1   
    21     3    21 1   
    22     4    22 1   
    23     4    23 1   
    24     5    24 1   
    25     5    25 1   
    26     6    26 1   
    27     6    27 1   
    28     7    28 1   
    29     7    29 1   
    30     8    30 1   
    31     8    31 1   
    32     9    32 1   
    33     9    33 1   
    34    11    34 1   
    35    37    35 1   
    36    13    36 1   
@<TRIPOS>SUBSTRUCTURE
     1 480         1 TEMP              0 ****  ****    0 ROOT
