@<TRIPOS>MOLECULE
480
   37    31     1     0     0
SMALL
bcc


@<TRIPOS>ATOM
      1 C8          0.4550   -0.6840   -0.1580 c2        1 480     -0.225000
      2 C24        10.0580   -1.6010    5.9900 c1        1 480     -0.095000
      3 C7          1.5220   -0.4340   -0.9030 c2        1 480     -0.225000
      4 C6          0.7170   -1.3750    3.4650 c3        1 480     -0.272000
      5 C5          4.5000   -0.5970    1.1550 c2        1 480     -0.225000
      6 C4          4.2650   -0.8980    2.4250 c2        1 480     -0.225000
      7 C3          6.2980    2.1020    3.0250 c2        1 480     -0.111000
      8 C2          7.0930    2.0450    4.0940 c2        1 480     -0.243000
      9 C21        12.7430    0.6780    6.0150 c2        1 480     -0.355000
     10 C1          7.2610    0.8150    4.8740 c2        1 480      0.345000
     11 C22        11.7720    1.5160    5.6370 c2        1 480      0.007000
     12 O19         6.7820   -0.3050    4.6490 o         1 480     -0.351000
     13 O23        10.4680    1.1650    5.4300 oh        1 480     -0.353000
     14 O20         8.0160    0.8270    6.0110 oh        1 480     -0.313000
     15 H1         -0.3100   -1.5330    3.8590 hc        1 480      0.068000
     16 H2         -0.1210    0.1070    0.3410 ha        1 480      0.112625
     17 H3          0.0750   -1.7010    0.0130 ha        1 480      0.112625
     18 H4         11.9060    2.5940    5.4450 h4        1 480      0.139000
     19 H5         10.7870   -2.4100    6.2400 ha        1 480      0.046000
     20 H6          0.6680   -1.1590    2.3730 hc        1 480      0.068000
     21 H7          1.9020    0.5820   -1.0740 ha        1 480      0.112625
     22 H8          2.0980   -1.2270   -1.4010 ha        1 480      0.112625
     23 H9          1.3230   -2.2920    3.6340 hc        1 480      0.068000
     24 H10         1.1880   -0.5170    3.9920 hc        1 480      0.068000
     25 H11         3.6980   -0.4930    0.4100 ha        1 480      0.112625
     26 H12         5.5140   -0.4400    0.7620 ha        1 480      0.112625
     27 H13         3.2480   -1.0610    2.8130 ha        1 480      0.112625
     28 H14         5.0660   -1.0070    3.1730 ha        1 480      0.112625
     29 H15         6.1750    3.0240    2.4410 ha        1 480      0.137000
     30 H16         5.7230    1.2280    2.6700 ha        1 480      0.137000
     31 H17         7.6730    2.9150    4.4440 ha        1 480      0.144000
     32 H18         8.5140    1.6560    6.0910 ho        1 480      0.260000
     33 H19        13.7710    1.0210    6.1640 ha        1 480      0.121500
     34 H20        12.5590   -0.3890    6.1920 ha        1 480      0.121500
     35 H21         8.1930   -1.3610    5.8790 ho        1 480      0.285000
     36 H22        10.3490    0.1890    5.5970 ho        1 480      0.277000
     37 O25         8.8460   -2.0650    6.0980 oh        1 480     -0.203000
@<TRIPOS>BOND
     1    1    3 1   
     2    1   16 1   
     3    1   17 1   
     4    2   19 1   
     5    2   37 1   
     6    3   21 1   
     7    3   22 1   
     8    4   15 1   
     9    4   20 1   
    10    4   23 1   
    11    4   24 1   
    12    5    6 1   
    13    5   25 1   
    14    5   26 1   
    15    6   27 1   
    16    6   28 1   
    17    7    8 1   
    18    7   29 1   
    19    7   30 1   
    20    8   10 1   
    21    8   31 1   
    22    9   11 1   
    23    9   33 1   
    24    9   34 1   
    25   10   12 1   
    26   10   14 1   
    27   11   13 1   
    28   11   18 1   
    29   13   36 1   
    30   14   32 1   
    31   35   37 1   
@<TRIPOS>SUBSTRUCTURE
     1 480         1 TEMP              0 ****  ****    0 ROOT
