@<TRIPOS>MOLECULE
481
   81    86     1     0     0
SMALL
bcc


@<TRIPOS>ATOM
      1 O34          0.0000     0.0000     0.0000 o          1 481      -0.638100
      2 C32          1.2150     0.0000     0.0000 c          1 481       0.592700
      3 C33          1.9550     0.0000     1.2800 ca         1 481      -0.173600
      4 C39          3.3470    -0.1070     1.2860 ca         1 481      -0.060000
      5 C38          4.0300    -0.1060     2.4840 ca         1 481      -0.113000
      6 C37          3.3390     0.0020     3.6780 ca         1 481      -0.051300
      7 C40          4.0930     0.0030     4.9830 c3         1 481      -0.015700
      8 C43          3.0990     0.0140     6.1460 c3         1 481      -0.003433
      9 C42          4.9660    -1.2520     5.0700 c3         1 481      -0.003433
     10 C41          4.9800     1.2480     5.0590 c3         1 481      -0.003433
     11 C36          1.9610     0.1090     3.6800 ca         1 481      -0.113000
     12 C35          1.2640     0.1150     2.4880 ca         1 481      -0.060000
     13 N31          1.8890    -0.0060    -1.1680 ns         1 481      -0.044100
     14 C13          1.1990     0.1460    -2.3740 ca         1 481      -0.094400
     15 C12          1.7690     0.8650    -3.4140 ca         1 481      -0.102000
     16 C14         -0.0570    -0.4280    -2.5330 ca         1 481      -0.089000
     17 C15         -0.7410    -0.2810    -3.7250 ca         1 481      -0.086000
     18 C16         -0.1830     0.4380    -4.7630 ca         1 481      -0.103000
     19 C11          1.0780     1.0130    -4.6130 ca         1 481      -0.142500
     20 C3           1.6790     1.7870    -5.7270 cc         1 481       0.509800
     21 N2           2.9310     2.2610    -5.6020 nc         1 481      -0.691000
     22 C4           0.9580     1.9990    -6.8600 cd         1 481      -0.481600
     23 N6           1.5050     2.7110    -7.8920 na         1 481       0.686700
     24 C5           2.7810     3.2020    -7.7680 cd         1 481      -0.417600
     25 N9           3.0810     3.8470    -8.8820 nc         1 481      -0.231600
     26 C8           2.0430     3.7850    -9.7160 cc         1 481       0.045600
     27 C7           1.0510     3.0830    -9.1200 cd         1 481      -0.432100
     28 C1           3.4980     2.9510    -6.5690 cd         1 481       0.569200
     29 N10          4.7900     3.4300    -6.4190 nu         1 481      -0.240300
     30 C17          5.5340     3.0860    -5.2940 ca         1 481       0.009600
     31 C20          6.6660     3.8210    -4.9570 ca         1 481      -0.163000
     32 C21          7.4030     3.4830    -3.8450 ca         1 481      -0.043500
     33 C22          7.0120     2.4000    -3.0520 ca         1 481      -0.174600
     34 C19          5.8730     1.6640    -3.3920 ca         1 481      -0.043500
     35 C18          5.1380     2.0110    -4.5030 ca         1 481      -0.163000
     36 C23          7.7990     2.0340    -1.8590 c          1 481       0.615700
     37 O24          9.0030     1.8880    -1.9470 o          1 481      -0.644100
     38 N25          7.1840     1.8640    -0.6720 n          1 481      -0.151800
     39 C30          7.9620     1.6410     0.5560 c3         1 481       0.032500
     40 C29          7.4840     2.6330     1.6220 c3         1 481       0.135800
     41 N28          6.0290     2.5140     1.7790 n3         1 481      -0.547600
     42 C44          5.5510     3.3200     2.9100 c3         1 481       0.165100
     43 C27          5.3270     2.8770     0.5400 c3         1 481       0.135800
     44 C26          5.7180     1.9010    -0.5700 c3         1 481       0.032500
     45 H1           3.8890    -0.1920     0.3510 ha         1 481       0.114000
     46 H2           5.1100    -0.1890     2.4910 ha         1 481       0.124000
     47 H3           2.4490    -0.8500     6.0740 hc         1 481       0.010700
     48 H4           3.6400    -0.0200     7.0840 hc         1 481       0.010700
     49 H5           2.5040     0.9180     6.1050 hc         1 481       0.010700
     50 H6           5.3840    -1.3320     6.0660 hc         1 481       0.010700
     51 H7           4.3620    -2.1260     4.8600 hc         1 481       0.010700
     52 H8           5.7680    -1.1840     4.3450 hc         1 481       0.010700
     53 H9           5.7910     1.1570     4.3460 hc         1 481       0.010700
     54 H10          5.3870     1.3410     6.0580 hc         1 481       0.010700
     55 H11          4.3900     2.1260     4.8250 hc         1 481       0.010700
     56 H12          1.4260     0.1950     4.6180 ha         1 481       0.124000
     57 H13          0.1840     0.1980     2.4910 ha         1 481       0.114000
     58 H14          2.8760    -0.1700    -1.1740 hn         1 481       0.174500
     59 H15          2.7490     1.3110    -3.2930 ha         1 481       0.129000
     60 H16         -0.5000    -0.9920    -1.7220 ha         1 481       0.148000
     61 H17         -1.7210    -0.7280    -3.8440 ha         1 481       0.107000
     62 H18         -0.7220     0.5510    -5.6960 ha         1 481       0.107000
     63 H19         -0.0720     1.6680    -6.9170 h4         1 481       0.161000
     64 H20          2.0010     4.2240   -10.7050 h4         1 481       0.143000
     65 H21          0.0780     2.8590    -9.5410 h4         1 481       0.163000
     66 H22          5.1950     4.0090    -7.1280 hn         1 481       0.305800
     67 H23          6.9690     4.6600    -5.5720 ha         1 481       0.147500
     68 H24          8.2850     4.0560    -3.5840 ha         1 481       0.111500
     69 H25          5.5650     0.8260    -2.7780 ha         1 481       0.111500
     70 H26          4.2550     1.4410    -4.7670 ha         1 481       0.147500
     71 H27          9.0140     1.8040     0.3540 h1         1 481       0.039450
     72 H28          7.8060     0.6280     0.9060 h1         1 481       0.039450
     73 H29          7.9670     2.4080     2.5650 h1         1 481       0.018450
     74 H30          7.7320     3.6410     1.3140 h1         1 481       0.018450
     75 H32          5.6650     4.3720     2.6780 h1         1 481       0.010033
     76 H33          4.5050     3.1020     3.0920 h1         1 481       0.010033
     77 H34          6.1280     3.0800     3.7940 h1         1 481       0.010033
     78 H35          5.6060     3.8830     0.2500 h1         1 481       0.018450
     79 H36          4.2580     2.8260     0.7040 h1         1 481       0.018450
     80 H37          5.3470     0.9120    -0.3300 h1         1 481       0.039450
     81 H38          5.2980     2.2350    -1.5100 h1         1 481       0.039450
@<TRIPOS>BOND
     1     1     2 2   
     2     2     3 1   
     3     2    13 1   
     4     3     4 ar  
     5     3    12 ar  
     6     4     5 ar  
     7     4    45 1   
     8     5     6 ar  
     9     5    46 1   
    10     6     7 1   
    11     6    11 ar  
    12     7     8 1   
    13     7     9 1   
    14     7    10 1   
    15     8    47 1   
    16     8    48 1   
    17     8    49 1   
    18     9    50 1   
    19     9    51 1   
    20     9    52 1   
    21    10    53 1   
    22    10    54 1   
    23    10    55 1   
    24    11    12 ar  
    25    11    56 1   
    26    12    57 1   
    27    13    14 1   
    28    13    58 1   
    29    14    15 ar  
    30    14    16 ar  
    31    15    19 ar  
    32    15    59 1   
    33    16    17 ar  
    34    16    60 1   
    35    17    18 ar  
    36    17    61 1   
    37    18    19 ar  
    38    18    62 1   
    39    19    20 1   
    40    20    21 1   
    41    20    22 2   
    42    21    28 2   
    43    22    23 1   
    44    22    63 1   
    45    23    24 1   
    46    23    27 1   
    47    24    25 2   
    48    24    28 1   
    49    25    26 1   
    50    26    27 2   
    51    26    64 1   
    52    27    65 1   
    53    28    29 1   
    54    29    30 1   
    55    29    66 1   
    56    30    31 ar  
    57    30    35 ar  
    58    31    32 ar  
    59    31    67 1   
    60    32    33 ar  
    61    32    68 1   
    62    33    34 ar  
    63    33    36 1   
    64    34    35 ar  
    65    34    69 1   
    66    35    70 1   
    67    36    37 2   
    68    36    38 1   
    69    38    39 1   
    70    38    44 1   
    71    39    40 1   
    72    39    71 1   
    73    39    72 1   
    74    40    41 1   
    75    40    73 1   
    76    40    74 1   
    77    41    42 1   
    78    41    43 1   
    79    42    75 1   
    80    42    76 1   
    81    42    77 1   
    82    43    44 1   
    83    43    78 1   
    84    43    79 1   
    85    44    80 1   
    86    44    81 1   
@<TRIPOS>SUBSTRUCTURE
     1 481         1 TEMP              0 ****  ****    0 ROOT
