@<TRIPOS>MOLECULE
molecule
   81    86     1     0     0
SMALL
bcc


@<TRIPOS>ATOM
      1 O34          0.0000     0.0000     0.0000 o          1 481      -0.597100
      2 C32          1.2150     0.0000     0.0000 c          1 481       0.679700
      3 C33          1.9550     0.0000     1.2800 ca         1 481      -0.161600
      4 C39          3.3470    -0.1070     1.2860 ca         1 481      -0.087000
      5 C38          4.0300    -0.1060     2.4840 ca         1 481      -0.129500
      6 C37          3.3390     0.0020     3.6780 ca         1 481      -0.046300
      7 C40          4.0930     0.0030     4.9830 c3         1 481      -0.027700
      8 C43          3.0990     0.0140     6.1460 c3         1 481      -0.084100
      9 C42          4.9660    -1.2520     5.0700 c3         1 481      -0.084100
     10 C41          4.9800     1.2480     5.0590 c3         1 481      -0.084100
     11 C36          1.9610     0.1090     3.6800 ca         1 481      -0.129500
     12 C35          1.2640     0.1150     2.4880 ca         1 481      -0.087000
     13 N31          1.8890    -0.0060    -1.1680 ns         1 481      -0.480100
     14 C13          1.1990     0.1460    -2.3740 ca         1 481       0.050600
     15 C12          1.7690     0.8650    -3.4140 ca         1 481      -0.125000
     16 C14         -0.0570    -0.4280    -2.5330 ca         1 481      -0.114000
     17 C15         -0.7410    -0.2810    -3.7250 ca         1 481      -0.116000
     18 C16         -0.1830     0.4380    -4.7630 ca         1 481      -0.133000
     19 C11          1.0780     1.0130    -4.6130 ca         1 481      -0.126500
     20 C3           1.6790     1.7870    -5.7270 cc         1 481       0.490800
     21 N2           2.9310     2.2610    -5.6020 nd         1 481      -0.769000
     22 C4           0.9580     1.9990    -6.8600 cd         1 481      -0.253600
     23 N6           1.5050     2.7110    -7.8920 na         1 481       0.082700
     24 C5           2.7810     3.2020    -7.7680 cc         1 481      -0.185600
     25 N9           3.0810     3.8470    -8.8820 nd         1 481      -0.299600
     26 C8           2.0430     3.7850    -9.7160 cd         1 481       0.024600
     27 C7           1.0510     3.0830    -9.1200 cc         1 481      -0.224100
     28 C1           3.4980     2.9510    -6.5690 cc         1 481       0.752200
     29 N10          4.7900     3.4300    -6.4190 nu         1 481      -0.734300
     30 C17          5.5340     3.0860    -5.2940 ca         1 481       0.175600
     31 C20          6.6660     3.8210    -4.9570 ca         1 481      -0.176500
     32 C21          7.4030     3.4830    -3.8450 ca         1 481      -0.075000
     33 C22          7.0120     2.4000    -3.0520 ca         1 481      -0.170600
     34 C19          5.8730     1.6640    -3.3920 ca         1 481      -0.075000
     35 C18          5.1380     2.0110    -4.5030 ca         1 481      -0.176500
     36 C23          7.7990     2.0340    -1.8590 c          1 481       0.679700
     37 O24          9.0030     1.8880    -1.9470 o          1 481      -0.605100
     38 N25          7.1840     1.8640    -0.6720 n          1 481      -0.490800
     39 C30          7.9620     1.6410     0.5560 c3         1 481       0.102000
     40 C29          7.4840     2.6330     1.6220 c3         1 481       0.143300
     41 N28          6.0290     2.5140     1.7790 n3         1 481      -0.736600
     42 C44          5.5510     3.3200     2.9100 c3         1 481       0.146100
     43 C27          5.3270     2.8770     0.5400 c3         1 481       0.143300
     44 C26          5.7180     1.9010    -0.5700 c3         1 481       0.102000
     45 H1           3.8890    -0.1920     0.3510 ha         1 481       0.138500
     46 H2           5.1100    -0.1890     2.4910 ha         1 481       0.145500
     47 H3           2.4490    -0.8500     6.0740 hc         1 481       0.039367
     48 H4           3.6400    -0.0200     7.0840 hc         1 481       0.039367
     49 H5           2.5040     0.9180     6.1050 hc         1 481       0.039367
     50 H6           5.3840    -1.3320     6.0660 hc         1 481       0.039367
     51 H7           4.3620    -2.1260     4.8600 hc         1 481       0.039367
     52 H8           5.7680    -1.1840     4.3450 hc         1 481       0.039367
     53 H9           5.7910     1.1570     4.3460 hc         1 481       0.039367
     54 H10          5.3870     1.3410     6.0580 hc         1 481       0.039367
     55 H11          4.3900     2.1260     4.8250 hc         1 481       0.039367
     56 H12          1.4260     0.1950     4.6180 ha         1 481       0.145500
     57 H13          0.1840     0.1980     2.4910 ha         1 481       0.138500
     58 H14          2.8760    -0.1700    -1.1740 hn         1 481       0.326500
     59 H15          2.7490     1.3110    -3.2930 ha         1 481       0.152000
     60 H16         -0.5000    -0.9920    -1.7220 ha         1 481       0.170000
     61 H17         -1.7210    -0.7280    -3.8440 ha         1 481       0.138000
     62 H18         -0.7220     0.5510    -5.6960 ha         1 481       0.128000
     63 H19         -0.0720     1.6680    -6.9170 h4         1 481       0.173000
     64 H20          2.0010     4.2240   -10.7050 h4         1 481       0.187000
     65 H21          0.0780     2.8590    -9.5410 h4         1 481       0.185000
     66 H22          5.1950     4.0090    -7.1280 hn         1 481       0.478800
     67 H23          6.9690     4.6600    -5.5720 ha         1 481       0.166000
     68 H24          8.2850     4.0560    -3.5840 ha         1 481       0.140500
     69 H25          5.5650     0.8260    -2.7780 ha         1 481       0.140500
     70 H26          4.2550     1.4410    -4.7670 ha         1 481       0.166000
     71 H27          9.0140     1.8040     0.3540 h1         1 481       0.062450
     72 H28          7.8060     0.6280     0.9060 h1         1 481       0.062450
     73 H29          7.9670     2.4080     2.5650 h1         1 481       0.044700
     74 H30          7.7320     3.6410     1.3140 h1         1 481       0.044700
     75 H32          5.6650     4.3720     2.6780 h1         1 481       0.036033
     76 H33          4.5050     3.1020     3.0920 h1         1 481       0.036033
     77 H34          6.1280     3.0800     3.7940 h1         1 481       0.036033
     78 H35          5.6060     3.8830     0.2500 h1         1 481       0.044700
     79 H36          4.2580     2.8260     0.7040 h1         1 481       0.044700
     80 H37          5.3470     0.9120    -0.3300 h1         1 481       0.062450
     81 H38          5.2980     2.2350    -1.5100 h1         1 481       0.062450
@<TRIPOS>BOND
     1    42    41 1   
     2    41    43 1   
     3    41    40 1   
     4    43    44 1   
     5    40    39 1   
     6    44    38 1   
     7    39    38 1   
     8    38    36 1   
     9    36    37 2   
    10    36    33 1   
    11    34    33 ar  
    12    34    35 ar  
    13    33    32 ar  
    14    35    30 ar  
    15    32    31 ar  
    16    30    31 ar  
    17    30    29 1   
    18    29    28 1   
    19    28    21 2   
    20    28    24 1   
    21    25    24 2   
    22    25    26 1   
    23    21    20 1   
    24    24    23 1   
    25    26    27 2   
    26    20    19 1   
    27    20    22 2   
    28    23    27 1   
    29    23    22 1   
    30    18    19 ar  
    31    18    17 ar  
    32    19    15 ar  
    33    17    16 ar  
    34    15    14 ar  
    35    16    14 ar  
    36    14    13 1   
    37    13     2 1   
    38     2     1 2   
    39     2     3 1   
    40     4     3 ar  
    41     4     5 ar  
    42     3    12 ar  
    43     5     6 ar  
    44    12    11 ar  
    45     6    11 ar  
    46     6     7 1   
    47     9     7 1   
    48     7    10 1   
    49     7     8 1   
    50     4    45 1   
    51     5    46 1   
    52     8    47 1   
    53     8    48 1   
    54     8    49 1   
    55     9    50 1   
    56     9    51 1   
    57     9    52 1   
    58    10    53 1   
    59    10    54 1   
    60    10    55 1   
    61    11    56 1   
    62    12    57 1   
    63    13    58 1   
    64    15    59 1   
    65    16    60 1   
    66    17    61 1   
    67    18    62 1   
    68    22    63 1   
    69    26    64 1   
    70    27    65 1   
    71    29    66 1   
    72    31    67 1   
    73    32    68 1   
    74    34    69 1   
    75    35    70 1   
    76    39    71 1   
    77    39    72 1   
    78    40    73 1   
    79    40    74 1   
    80    42    75 1   
    81    42    76 1   
    82    42    77 1   
    83    43    78 1   
    84    43    79 1   
    85    44    80 1   
    86    44    81 1   
@<TRIPOS>SUBSTRUCTURE
     1 481         1 TEMP              0 ****  ****    0 ROOT
