@<TRIPOS>MOLECULE
482
   30    30     1     0     0
SMALL
bcc


@<TRIPOS>ATOM
      1 C15          0.0000     0.0000     0.0000 c3         1 482       0.004900
      2 C14          1.5310     0.0000     0.0000 c3         1 482      -0.019400
      3 C13          2.0410     0.0000     1.4430 c3         1 482      -0.119400
      4 C11          3.5470    -0.0000     1.4430 c          1 482       0.582100
      5 O12          4.1510    -0.0000     0.3980 o          1 482      -0.486100
      6 C10          4.3000    -0.0000     2.7490 c3         1 482      -0.191400
      7 C8           5.7820    -0.0000     2.4730 c          1 482       0.570100
      8 O9           6.1860    -0.0000     1.3300 o          1 482      -0.577100
      9 N7           6.6570    -0.0000     3.4980 ns         1 482      -0.198900
     10 C1           8.0970    -0.0010     3.2310 c3         1 482      -0.088300
     11 C5           8.8670     0.6110     4.4230 c3         1 482      -0.074400
     12 C4           9.7740    -0.5490     4.8840 c3         1 482       0.220400
     13 C2           8.6160    -1.4200     3.1300 c          1 482       0.776600
     14 O6           8.0600    -2.3410     2.5790 o          1 482      -0.569500
     15 OAP          9.8040    -1.4780     3.7600 os         1 482      -0.398900
     16 H1          -0.3610    -0.8850     0.5110 hc         1 482       0.000367
     17 H2          -0.3610     0.0000    -1.0210 hc         1 482       0.000367
     18 H3          -0.3610     0.8840     0.5110 hc         1 482       0.000367
     19 H4           1.8920     0.8850    -0.5110 hc         1 482       0.026700
     20 H5           1.8920    -0.8850    -0.5110 hc         1 482       0.026700
     21 H6           1.6790    -0.8840     1.9530 hc         1 482       0.029700
     22 H7           1.6800     0.8850     1.9530 hc         1 482       0.029700
     23 H8           4.0380    -0.8850     3.3170 hc         1 482       0.043700
     24 H9           4.0380     0.8850     3.3170 hc         1 482       0.043700
     25 H10          6.3230     0.0070     4.4410 hn         1 482       0.172500
     26 H11          8.3180     0.5450     2.3220 h1         1 482       0.088700
     27 H12          8.1830     0.8970     5.2120 hc         1 482       0.035200
     28 H13          9.4630     1.4550     4.0990 hc         1 482       0.035200
     29 H14          9.3510    -1.0310     5.7570 h1         1 482       0.019200
     30 H15         10.7720    -0.1840     5.0950 h1         1 482       0.019200
@<TRIPOS>BOND
     1     1     2 1   
     2     1    16 1   
     3     1    17 1   
     4     1    18 1   
     5     2     3 1   
     6     2    19 1   
     7     2    20 1   
     8     3     4 1   
     9     3    21 1   
    10     3    22 1   
    11     4     5 2   
    12     4     6 1   
    13     6     7 1   
    14     6    23 1   
    15     6    24 1   
    16     7     8 2   
    17     7     9 1   
    18     9    10 1   
    19     9    25 1   
    20    10    11 1   
    21    10    13 1   
    22    10    26 1   
    23    11    12 1   
    24    11    27 1   
    25    11    28 1   
    26    12    15 1   
    27    12    29 1   
    28    12    30 1   
    29    13    14 2   
    30    13    15 1   
@<TRIPOS>SUBSTRUCTURE
     1 482         1 TEMP              0 ****  ****    0 ROOT
