@<TRIPOS>MOLECULE
molecule
   30    30     1     0     0
SMALL
bcc


@<TRIPOS>ATOM
      1 C15          0.0000     0.0000     0.0000 c3         1 482      -0.094100
      2 C14          1.5310     0.0000     0.0000 c3         1 482      -0.074400
      3 C13          2.0410     0.0000     1.4430 c3         1 482      -0.179400
      4 C11          3.5470    -0.0000     1.4430 c          1 482       0.552100
      5 O12          4.1510    -0.0000     0.3980 o          1 482      -0.459100
      6 C10          4.3000    -0.0000     2.7490 c3         1 482      -0.261400
      7 C8           5.7820    -0.0000     2.4730 c          1 482       0.658100
      8 O9           6.1860    -0.0000     1.3300 o          1 482      -0.543100
      9 N7           6.6570    -0.0000     3.4980 ns         1 482      -0.584900
     10 C1           8.0970    -0.0010     3.2310 c3         1 482       0.007700
     11 C5           8.8670     0.6110     4.4230 c3         1 482      -0.134400
     12 C4           9.7740    -0.5490     4.8840 c3         1 482       0.135400
     13 C2           8.6160    -1.4200     3.1300 c          1 482       0.715600
     14 O6           8.0600    -2.3410     2.5790 o          1 482      -0.525500
     15 OAP          9.8040    -1.4780     3.7600 os         1 482      -0.408900
     16 H1          -0.3610    -0.8850     0.5110 hc         1 482       0.033367
     17 H2          -0.3610     0.0000    -1.0210 hc         1 482       0.033367
     18 H3          -0.3610     0.8840     0.5110 hc         1 482       0.033367
     19 H4           1.8920     0.8850    -0.5110 hc         1 482       0.056700
     20 H5           1.8920    -0.8850    -0.5110 hc         1 482       0.056700
     21 H6           1.6790    -0.8840     1.9530 hc         1 482       0.060700
     22 H7           1.6800     0.8850     1.9530 hc         1 482       0.060700
     23 H8           4.0380    -0.8850     3.3170 hc         1 482       0.079200
     24 H9           4.0380     0.8850     3.3170 hc         1 482       0.079200
     25 H10          6.3230     0.0070     4.4410 hn         1 482       0.313500
     26 H11          8.3180     0.5450     2.3220 h1         1 482       0.119700
     27 H12          8.1830     0.8970     5.2120 hc         1 482       0.068200
     28 H13          9.4630     1.4550     4.0990 hc         1 482       0.068200
     29 H14          9.3510    -1.0310     5.7570 h1         1 482       0.065700
     30 H15         10.7720    -0.1840     5.0950 h1         1 482       0.065700
@<TRIPOS>BOND
     1     5     4 2
     2     8     7 2
     3     6     7 1
     4     6     4 1
     5     7     9 1
     6     4     3 1
     7     9    10 1
     8    10    11 1
     9    10    13 1
    10    11    12 1
    11     1     2 1
    12     3     2 1
    13    13    14 2
    14    13    15 1
    15    12    15 1
    16     1    16 1
    17     1    17 1
    18     1    18 1
    19     2    19 1
    20     2    20 1
    21     3    21 1
    22     3    22 1
    23     6    23 1
    24     6    24 1
    25     9    25 1
    26    10    26 1
    27    11    27 1
    28    11    28 1
    29    12    29 1
    30    12    30 1
@<TRIPOS>SUBSTRUCTURE
     1 482         1 TEMP              0 ****  ****    0 ROOT
