@<TRIPOS>MOLECULE
molecule
   35    36     1     0     0
SMALL
bcc


@<TRIPOS>ATOM
      1 C4           0.0000     0.0000     0.0000 c3         1 483       0.117700
      2 C5           1.5300     0.0000     0.0000 c3         1 483      -0.093900
      3 C6           2.0410     0.0000     1.4420 c3         1 483      -0.072400
      4 N1          -3.5570     1.0780    -3.1260 na         1 483      -0.176900
      5 C8          -2.2140     0.4940    -3.0840 c3         1 483      -0.031700
      6 N2          -5.1560     2.5190    -3.2770 nc         1 483      -0.694000
      7 C9          -4.7400     0.4040    -2.9890 cd         1 483      -0.266600
      8 C10         -5.7240     1.3190    -3.0850 cc         1 483       0.314200
      9 C11         -3.8590     2.3830    -3.3020 cd         1 483       0.407400
     10 O           -2.4060     0.9380    -0.7730 o          1 483      -0.576100
     11 N           -0.4890     0.0000    -1.3810 ns         1 483      -0.583900
     12 C3          -0.5100    -1.2490     0.7220 c3         1 483      -0.093900
     13 C2           0.0000    -1.2490     2.1640 c3         1 483      -0.072400
     14 C1           1.5310    -1.2490     2.1630 c3         1 483      -0.077700
     15 C            2.0420    -1.2490     3.6050 c3         1 483      -0.088100
     16 H1          -0.3590     0.8830     0.5150 h1         1 483       0.083700
     17 H2           1.8890     0.8860    -0.5090 hc         1 483       0.047200
     18 H3           1.8900    -0.8860    -0.5090 hc         1 483       0.047200
     19 H4           3.1240    -0.0030     1.4400 hc         1 483       0.047700
     20 H5           1.6770     0.8840     1.9530 hc         1 483       0.047700
     21 H6          -1.5460     1.0800    -3.7040 h1         1 483       0.077200
     22 H7          -2.2510    -0.5240    -3.4540 h1         1 483       0.077200
     23 H8          -4.8620    -0.6610    -2.8320 h4         1 483       0.171000
     24 H9          -6.7870     1.1200    -3.0200 h4         1 483       0.040100
     25 H10         -3.1420     3.1830    -3.4420 h5         1 483       0.062100
     26 H11          0.0900    -0.3520    -2.1170 hn         1 483       0.310500
     27 H12         -0.1470    -2.1330     0.2110 hc         1 483       0.047200
     28 H13         -1.5940    -1.2460     0.7240 hc         1 483       0.047200
     29 H14         -0.3590    -2.1360     2.6730 hc         1 483       0.047700
     30 H15         -0.3590    -0.3630     2.6730 hc         1 483       0.047700
     31 H16          1.8900    -2.1320     1.6480 hc         1 483       0.049700
     32 H17          1.6810    -0.3640     4.1160 hc         1 483       0.035367
     33 H18          1.6810    -2.1330     4.1160 hc         1 483       0.035367
     34 H19          3.1250    -1.2490     3.6050 hc         1 483       0.035367
     35 C7          -1.7120     0.4940    -1.6630 c          1 483       0.630100
@<TRIPOS>BOND
     1    15    14 1   
     2    14     3 1   
     3    14    13 1   
     4     3     2 1   
     5     2     1 1   
     6    13    12 1   
     7    12     1 1   
     8     1    11 1   
     9    11    35 1   
    10    35     5 1   
    11    35    10 2   
    12     5     4 1   
    13     4     9 1   
    14     4     7 1   
    15     9     6 2   
    16     7     8 2   
    17     6     8 1   
    18     1    16 1   
    19     2    17 1   
    20     2    18 1   
    21     3    19 1   
    22     3    20 1   
    23     5    21 1   
    24     5    22 1   
    25     7    23 1   
    26     8    24 1   
    27     9    25 1   
    28    11    26 1   
    29    12    27 1   
    30    12    28 1   
    31    13    29 1   
    32    13    30 1   
    33    14    31 1   
    34    15    32 1   
    35    15    33 1   
    36    15    34 1   
@<TRIPOS>SUBSTRUCTURE
     1 483         1 TEMP              0 ****  ****    0 ROOT
