@<TRIPOS>MOLECULE
483
   35    36     1     0     0
SMALL
bcc


@<TRIPOS>ATOM
      1 C4           0.0000     0.0000     0.0000 c3         1 483       0.016700
      2 C5           1.5300     0.0000     0.0000 c3         1 483      -0.038900
      3 C6           2.0410     0.0000     1.4420 c3         1 483      -0.015900
      4 N1          -3.5570     1.0780    -3.1260 na         1 483       0.308100
      5 C8          -2.2140     0.4940    -3.0840 c3         1 483      -0.112700
      6 N2          -5.1560     2.5190    -3.2770 nc         1 483      -0.619000
      7 C9          -4.7400     0.4040    -2.9890 cd         1 483      -0.426600
      8 C10         -5.7240     1.3190    -3.0850 cc         1 483       0.327200
      9 C11         -3.8590     2.3830    -3.3020 cd         1 483       0.230400
     10 O           -2.4060     0.9380    -0.7730 o          1 483      -0.620100
     11 N           -0.4890     0.0000    -1.3810 ns         1 483      -0.183900
     12 C3          -0.5100    -1.2490     0.7220 c3         1 483      -0.038900
     13 C2           0.0000    -1.2490     2.1640 c3         1 483      -0.015900
     14 C1           1.5310    -1.2490     2.1630 c3         1 483      -0.056700
     15 C            2.0420    -1.2490     3.6050 c3         1 483       0.008900
     16 H1          -0.3590     0.8830     0.5150 h1         1 483       0.063700
     17 H2           1.8890     0.8860    -0.5090 hc         1 483       0.020200
     18 H3           1.8900    -0.8860    -0.5090 hc         1 483       0.020200
     19 H4           3.1240    -0.0030     1.4400 hc         1 483       0.020450
     20 H5           1.6770     0.8840     1.9530 hc         1 483       0.020450
     21 H6          -1.5460     1.0800    -3.7040 h1         1 483       0.045200
     22 H7          -2.2510    -0.5240    -3.4540 h1         1 483       0.045200
     23 H8          -4.8620    -0.6610    -2.8320 h4         1 483       0.149000
     24 H9          -6.7870     1.1200    -3.0200 h4         1 483       0.001100
     25 H10         -3.1420     3.1830    -3.4420 h5         1 483       0.019100
     26 H11          0.0900    -0.3520    -2.1170 hn         1 483       0.171500
     27 H12         -0.1470    -2.1330     0.2110 hc         1 483       0.020200
     28 H13         -1.5940    -1.2460     0.7240 hc         1 483       0.020200
     29 H14         -0.3590    -2.1360     2.6730 hc         1 483       0.020450
     30 H15         -0.3590    -0.3630     2.6730 hc         1 483       0.020450
     31 H16          1.8900    -2.1320     1.6480 hc         1 483       0.026700
     32 H17          1.6810    -0.3640     4.1160 hc         1 483       0.003700
     33 H18          1.6810    -2.1330     4.1160 hc         1 483       0.003700
     34 H19          3.1250    -1.2490     3.6050 hc         1 483       0.003700
     35 C7          -1.7120     0.4940    -1.6630 c          1 483       0.547100
@<TRIPOS>BOND
     1     1     2 1   
     2     1    11 1   
     3     1    12 1   
     4     1    16 1   
     5     2     3 1   
     6     2    17 1   
     7     2    18 1   
     8     3    14 1   
     9     3    19 1   
    10     3    20 1   
    11     4     5 1   
    12     4     7 1   
    13     4     9 1   
    14     5    21 1   
    15     5    22 1   
    16     5    35 1   
    17     6     8 1   
    18     6     9 2   
    19     7     8 2   
    20     7    23 1   
    21     8    24 1   
    22     9    25 1   
    23    10    35 2   
    24    11    26 1   
    25    11    35 1   
    26    12    13 1   
    27    12    27 1   
    28    12    28 1   
    29    13    14 1   
    30    13    29 1   
    31    13    30 1   
    32    14    15 1   
    33    14    31 1   
    34    15    32 1   
    35    15    33 1   
    36    15    34 1   
@<TRIPOS>SUBSTRUCTURE
     1 483         1 TEMP              0 ****  ****    0 ROOT
