@<TRIPOS>MOLECULE
molecule
   74    76     1     0     0
SMALL
bcc


@<TRIPOS>ATOM
      1 C1           0.0000     0.0000     0.0000 ca         1 484      -0.099000
      2 C2           1.3830     0.0000     0.0000 ca         1 484      -0.091300
      3 C3           2.0740     0.0000     1.1970 ca         1 484      -0.086300
      4 C4           1.3820    -0.0010     2.3940 ca         1 484      -0.098000
      5 C5          -0.0000    -0.0010     2.3930 ca         1 484      -0.087300
      6 C6          -0.6910     0.0050     1.1960 ca         1 484      -0.128000
      7 C48          3.5800    -0.0010     1.1980 c3         1 484       0.187700
      8 O49          4.0560    -0.0010     2.5450 oh         1 484      -0.608800
      9 C52          2.1370     0.0000    -1.3060 c3         1 484       0.187700
     10 O53          1.2090     0.0000    -2.3910 oh         1 484      -0.608800
     11 C10         -0.7540    -0.0030     3.6990 c3         1 484      -0.030100
     12 C27         -1.0090     1.4390     4.1410 c3         1 484      -0.031100
     13 C14         -1.7630     1.4380     5.4460 ca         1 484      -0.089300
     14 C17         -3.1440     1.4330     5.4440 ca         1 484      -0.111000
     15 C18         -3.8400     1.4320     6.6510 cp         1 484      -0.036000
     16 C19         -3.1360     1.4350     7.8550 ca         1 484      -0.073300
     17 C20         -1.7570     1.4420     7.8450 ca         1 484      -0.128000
     18 C21         -1.0710     1.4370     6.6440 ca         1 484      -0.121000
     19 C8          -3.8820     1.4350     9.1640 c3         1 484      -0.055800
     20 C7          -5.3230     1.4250     6.6560 cp         1 484      -0.036000
     21 C9          -6.0190     0.3270     6.1550 ca         1 484      -0.116000
     22 C11         -6.0260     2.5150     7.1660 ca         1 484      -0.070300
     23 C12         -7.4050     2.5050     7.1680 ca         1 484      -0.109000
     24 C13         -7.3990     0.3250     6.1670 ca         1 484      -0.131000
     25 C16         -8.0920     1.4140     6.6650 ca         1 484      -0.113300
     26 C15         -5.2790     3.7040     7.7160 c3         1 484      -0.047100
     27 C24         -9.5980     1.4050     6.6750 c3         1 484       0.200100
     28 C25        -10.1120     0.5600     5.5070 c3         1 484      -0.087900
     29 C26        -10.0960     0.8100     7.9930 c3         1 484      -0.087900
     30 O2         -10.0830     2.7430     6.5430 oh         1 484      -0.600800
     31 C28         -9.5150     1.6050     9.1640 c3         1 484      -0.095100
     32 C29        -11.6420     0.5820     5.4960 c3         1 484      -0.095100
     33 C22         -4.9230     4.6560     6.5720 c3         1 484      -0.078400
     34 C23         -4.1660     5.8620     7.1300 c3         1 484      -0.092100
     35 H1          -0.5420     0.0030    -0.9380 ha         1 484       0.153000
     36 H2           1.9230    -0.0040     3.3320 ha         1 484       0.153000
     37 H3          -1.7740     0.0050     1.1960 ha         1 484       0.131000
     38 H4           3.9420     0.8830     0.6870 h1         1 484       0.028700
     39 H5           3.9410    -0.8860     0.6870 h1         1 484       0.028700
     40 H6           4.9980    -0.0430     2.5450 ho         1 484       0.404000
     41 H7           2.7600    -0.8840    -1.3630 h1         1 484       0.028200
     42 H8           2.7590     0.8850    -1.3630 h1         1 484       0.028200
     43 H9           1.6800    -0.0260    -3.2080 ho         1 484       0.404000
     44 H10         -1.7010    -0.5130     3.5680 hc         1 484       0.052200
     45 H11         -0.1690    -0.5140     4.4530 hc         1 484       0.052200
     46 H12         -1.5940     1.9510     3.3860 hc         1 484       0.052700
     47 H13         -0.0630     1.9500     4.2710 hc         1 484       0.052700
     48 H14         -3.6850     1.4300     4.5060 ha         1 484       0.135000
     49 H15         -1.2090     1.4430     8.7800 ha         1 484       0.131000
     50 H16          0.0120     1.4420     6.6410 ha         1 484       0.131000
     51 H17         -3.7080     2.3720     9.6790 hc         1 484       0.048033
     52 H18         -3.5310     0.6150     9.7790 hc         1 484       0.048033
     53 H19         -4.9420     1.3170     8.9760 hc         1 484       0.048033
     54 H20         -5.4790    -0.5260     5.7640 ha         1 484       0.135000
     55 H21         -7.9520     3.3540     7.5610 ha         1 484       0.149000
     56 H22         -7.9410    -0.5280     5.7750 ha         1 484       0.132000
     57 H23         -4.3710     3.3680     8.2010 hc         1 484       0.055200
     58 H24         -5.9030     4.2210     8.4350 hc         1 484       0.055200
     59 H25         -9.7380     0.9670     4.5750 hc         1 484       0.049700
     60 H26         -9.7660    -0.4610     5.6200 hc         1 484       0.049700
     61 H27        -11.1780     0.8580     8.0260 hc         1 484       0.049700
     62 H28         -9.7790    -0.2230     8.0660 hc         1 484       0.049700
     63 H29         -9.9650     3.0340     5.6550 ho         1 484       0.406000
     64 H30        -10.1040     1.4200    10.0540 hc         1 484       0.039200
     65 H31         -8.4910     1.2960     9.3380 hc         1 484       0.039200
     66 H32         -9.5370     2.6620     8.9290 hc         1 484       0.039200
     67 H33        -11.9920     1.5340     5.8750 hc         1 484       0.039200
     68 H34        -12.0190    -0.2170     6.1230 hc         1 484       0.039200
     69 H35        -11.9970     0.4440     4.4820 hc         1 484       0.039200
     70 H36         -5.8320     4.9930     6.0870 hc         1 484       0.045200
     71 H37         -4.3000     4.1390     5.8530 hc         1 484       0.045200
     72 H38         -4.7690     6.3500     7.8860 hc         1 484       0.032700
     73 H39         -3.9580     6.5610     6.3280 hc         1 484       0.032700
     74 H40         -3.2330     5.5310     7.5700 hc         1 484       0.032700
@<TRIPOS>BOND
     1    31    29 1   
     2    32    28 1   
     3    29    27 1   
     4    28    27 1   
     5    27    30 1   
     6    27    25 1   
     7    24    25 ar  
     8    24    21 ar  
     9    25    23 ar  
    10    21    20 ar  
    11    23    22 ar  
    12    20    22 ar  
    13    20    15 1   
    14    22    26 1   
    15    14    15 ar  
    16    14    13 ar  
    17    15    16 ar  
    18    12    13 1   
    19    12    11 1   
    20    26    33 1   
    21    13    18 ar  
    22     6     1 ar  
    23     6     5 ar  
    24     1     2 ar  
    25    10     9 1   
    26     5     4 ar  
    27     5    11 1   
    28    16    19 1   
    29    16    17 ar  
    30     2     9 1   
    31     2     3 ar  
    32     4     3 ar  
    33     3     7 1   
    34    18    17 ar  
    35    33    34 1   
    36     7     8 1   
    37     1    35 1   
    38     4    36 1   
    39     6    37 1   
    40     7    38 1   
    41     7    39 1   
    42     8    40 1   
    43     9    41 1   
    44     9    42 1   
    45    10    43 1   
    46    11    44 1   
    47    11    45 1   
    48    12    46 1   
    49    12    47 1   
    50    14    48 1   
    51    17    49 1   
    52    18    50 1   
    53    19    51 1   
    54    19    52 1   
    55    19    53 1   
    56    21    54 1   
    57    23    55 1   
    58    24    56 1   
    59    26    57 1   
    60    26    58 1   
    61    28    59 1   
    62    28    60 1   
    63    29    61 1   
    64    29    62 1   
    65    30    63 1   
    66    31    64 1   
    67    31    65 1   
    68    31    66 1   
    69    32    67 1   
    70    32    68 1   
    71    32    69 1   
    72    33    70 1   
    73    33    71 1   
    74    34    72 1   
    75    34    73 1   
    76    34    74 1   
@<TRIPOS>SUBSTRUCTURE
     1 484         1 TEMP              0 ****  ****    0 ROOT
