@<TRIPOS>MOLECULE
484
   74    76     1     0     0
SMALL
bcc


@<TRIPOS>ATOM
      1 C1          0.1050    0.6240    0.1280 ca        1 484     -0.101000
      2 C2          1.4960    0.5000    0.0720 ca        1 484     -0.092300
      3 C3          2.2110    0.1990    1.2450 ca        1 484     -0.087300
      4 C4          1.5260    0.0280    2.4500 ca        1 484     -0.100000
      5 C5          0.1340    0.1540    2.5030 ca        1 484     -0.081300
      6 C6         -0.5710    0.4520    1.3330 ca        1 484     -0.130000
      7 C48         3.6970    0.0650    1.1770 c3        1 484      0.176700
      8 O49         4.2130   -0.2200    2.4690 oh        1 484     -0.596800
      9 C52         2.2390    0.6820   -1.2100 c3        1 484      0.176700
     10 O53         1.3230    0.9670   -2.2580 oh        1 484     -0.596800
     11 C10        -0.5910   -0.0380    3.7890 c3        1 484     -0.034100
     12 C27        -1.0500    1.2910    4.3710 c3        1 484     -0.033100
     13 C14        -1.7720    1.1020    5.6590 ca        1 484     -0.086300
     14 C17        -3.1580    1.2600    5.7270 ca        1 484     -0.110000
     15 C18        -3.8430    1.0900    6.9380 cp        1 484     -0.041000
     16 C19        -3.1280    0.7600    8.1020 ca        1 484     -0.063300
     17 C20        -1.7380    0.6060    8.0270 ca        1 484     -0.133000
     18 C21        -1.0650    0.7720    6.8220 ca        1 484     -0.122000
     19 C8         -3.8160    0.5900    9.4030 c3        1 484     -0.055800
     20 C7         -5.3040    1.2380    6.9560 cp        1 484     -0.035000
     21 C9         -6.0990    0.0840    7.0080 ca        1 484     -0.119000
     22 C11        -5.9240    2.4970    6.9100 ca        1 484     -0.059300
     23 C12        -7.3240    2.5740    6.9130 ca        1 484     -0.124000
     24 C13        -7.4870    0.1730    7.0050 ca        1 484     -0.129000
     25 C16        -8.1140    1.4250    6.9500 ca        1 484     -0.105300
     26 C15        -5.1380    3.7620    6.8770 c3        1 484     -0.043100
     27 C24        -9.6240    1.5160    6.9410 c3        1 484      0.198100
     28 C25       -10.1720    0.6480    5.7940 c3        1 484     -0.083400
     29 C26       -10.2030    1.0590    8.2890 c3        1 484     -0.083400
     30 O2        -10.0540    2.8670    6.7700 oh        1 484     -0.591800
     31 C28        -9.7500    1.9180    9.4400 c3        1 484     -0.092600
     32 C29       -11.6490    0.8300    5.5660 c3        1 484     -0.092600
     33 C22        -5.2090    4.4350    5.5180 c3        1 484     -0.074400
     34 C23        -4.4570    5.7400    5.5150 c3        1 484     -0.094100
     35 H1         -0.4530    0.8590   -0.7920 ha        1 484      0.153000
     36 H2          2.0950   -0.2090    3.3640 ha        1 484      0.153000
     37 H3         -1.6670    0.5500    1.3650 ha        1 484      0.132000
     38 H4          3.9710   -0.7670    0.4690 h1        1 484      0.029200
     39 H5          4.1490    1.0250    0.7960 h1        1 484      0.029200
     40 H6          5.1680   -0.3040    2.3640 ho        1 484      0.403000
     41 H7          2.9710    1.5320   -1.1090 h1        1 484      0.028700
     42 H8          2.8110   -0.2580   -1.4550 h1        1 484      0.028700
     43 H9          1.8540    1.0710   -3.0560 ho        1 484      0.402000
     44 H10        -1.4850   -0.6970    3.6180 hc        1 484      0.052700
     45 H11         0.0690   -0.5580    4.5330 hc        1 484      0.052700
     46 H12        -1.7120    1.8100    3.6270 hc        1 484      0.052700
     47 H13        -0.1560    1.9500    4.5390 hc        1 484      0.052700
     48 H14        -3.7240    1.5260    4.8210 ha        1 484      0.136000
     49 H15        -1.1730    0.3480    8.9360 ha        1 484      0.132000
     50 H16         0.0270    0.6470    6.7780 ha        1 484      0.133000
     51 H17        -3.1730    0.0360   10.1310 hc        1 484      0.047033
     52 H18        -4.7730    0.0250    9.2720 hc        1 484      0.047033
     53 H19        -4.0610    1.5910    9.8400 hc        1 484      0.047033
     54 H20        -5.6140   -0.9030    7.0490 ha        1 484      0.137000
     55 H21        -7.8030    3.5670    6.9010 ha        1 484      0.143000
     56 H22        -8.0900   -0.7460    7.0510 ha        1 484      0.132000
     57 H23        -4.0640    3.5580    7.1330 hc        1 484      0.055200
     58 H24        -5.5390    4.4630    7.6590 hc        1 484      0.055200
     59 H25        -9.9550   -0.4280    6.0210 hc        1 484      0.046700
     60 H26        -9.6160    0.9130    4.8560 hc        1 484      0.046700
     61 H27        -9.8930   -0.0050    8.4530 hc        1 484      0.046700
     62 H28       -11.3210    1.0930    8.2170 hc        1 484      0.046700
     63 H29        -9.7980    3.1290    5.8770 ho        1 484      0.400000
     64 H30        -8.6380    1.8910    9.5400 hc        1 484      0.039367
     65 H31       -10.2040    1.5530   10.3930 hc        1 484      0.039367
     66 H32       -10.0610    2.9790    9.2760 hc        1 484      0.039367
     67 H33       -11.9090    1.9160    5.5130 hc        1 484      0.039367
     68 H34       -12.2410    0.3710    6.3940 hc        1 484      0.039367
     69 H35       -11.9520    0.3430    4.6080 hc        1 484      0.039367
     70 H36        -4.7790    3.7480    4.7420 hc        1 484      0.040200
     71 H37        -6.2820    4.6140    5.2460 hc        1 484      0.040200
     72 H38        -4.5140    6.2170    4.5060 hc        1 484      0.034033
     73 H39        -4.8880    6.4470    6.2640 hc        1 484      0.034033
     74 H40        -3.3810    5.5770    5.7670 hc        1 484      0.034033
@<TRIPOS>BOND
     1    1    2 ar  
     2    1    6 ar  
     3    1   35 1   
     4    2    3 ar  
     5    2    9 1   
     6    3    4 ar  
     7    3    7 1   
     8    4    5 ar  
     9    4   36 1   
    10    5    6 ar  
    11    5   11 1   
    12    6   37 1   
    13    7    8 1   
    14    7   38 1   
    15    7   39 1   
    16    8   40 1   
    17    9   10 1   
    18    9   41 1   
    19    9   42 1   
    20   10   43 1   
    21   11   12 1   
    22   11   44 1   
    23   11   45 1   
    24   12   13 1   
    25   12   46 1   
    26   12   47 1   
    27   13   14 ar  
    28   13   18 ar  
    29   14   15 ar  
    30   14   48 1   
    31   15   16 ar  
    32   15   20 1   
    33   16   17 ar  
    34   16   19 1   
    35   17   18 ar  
    36   17   49 1   
    37   18   50 1   
    38   19   51 1   
    39   19   52 1   
    40   19   53 1   
    41   20   21 ar  
    42   20   22 ar  
    43   21   24 ar  
    44   21   54 1   
    45   22   23 ar  
    46   22   26 1   
    47   23   25 ar  
    48   23   55 1   
    49   24   25 ar  
    50   24   56 1   
    51   25   27 1   
    52   26   33 1   
    53   26   57 1   
    54   26   58 1   
    55   27   28 1   
    56   27   29 1   
    57   27   30 1   
    58   28   32 1   
    59   28   59 1   
    60   28   60 1   
    61   29   31 1   
    62   29   61 1   
    63   29   62 1   
    64   30   63 1   
    65   31   64 1   
    66   31   65 1   
    67   31   66 1   
    68   32   67 1   
    69   32   68 1   
    70   32   69 1   
    71   33   34 1   
    72   33   70 1   
    73   33   71 1   
    74   34   72 1   
    75   34   73 1   
    76   34   74 1   
@<TRIPOS>SUBSTRUCTURE
     1 484         1 TEMP              0 ****  ****    0 ROOT
