@<TRIPOS>MOLECULE
molecule
   51    52     1     0     0
SMALL
bcc


@<TRIPOS>ATOM
      1 O1           0.0000     0.0000     0.0000 oh         1 485      -0.518100
      2 C2           1.3590     0.0000     0.0000 ca         1 485       0.124100
      3 C3           2.0550     0.0000     1.1990 ca         1 485      -0.144000
      4 C4           3.4360    -0.0000     1.1960 ca         1 485      -0.120000
      5 C5           4.1250    -0.0010    -0.0020 ca         1 485      -0.150300
      6 C6           3.4350     0.0050    -1.1990 ca         1 485      -0.120000
      7 C7           2.0530    -0.0010    -1.2010 ca         1 485      -0.144000
      8 C8           5.6320    -0.0020    -0.0030 c3         1 485      -0.046100
      9 C9           6.1410    -1.4440    -0.0040 c3         1 485       0.022500
     10 N10          5.6520    -2.1360     1.1960 nz         1 485      -0.793600
     11 C11          7.6490    -1.4450    -0.0040 c          1 485       0.618100
     12 O12          8.2560    -1.4440     1.0460 o          1 485      -0.616100
     13 N13          8.3210    -1.4440    -1.1720 ns         1 485      -0.473900
     14 C14          9.7870    -1.4450    -1.1720 c3         1 485       0.011700
     15 C15         10.2890    -0.0250    -1.1720 c          1 485       0.882600
     16 O16          9.5630     0.9430    -1.7520 o          1 485      -0.812300
     17 O17         11.3450     0.2420    -0.6490 o          1 485      -0.812300
     18 C18         10.2950    -2.1660    -2.4220 c3         1 485       0.142100
     19 C19          9.7900    -3.6100    -2.4140 c3         1 485       0.112100
     20 C20         10.3320    -4.3350    -3.6520 c3         1 485       0.093100
     21 C21          9.9630    -3.5210    -4.8950 c3         1 485       0.099100
     22 C22         10.4560    -2.0830    -4.7150 c3         1 485       0.126100
     23 O23          9.8200    -1.4930    -3.5840 os         1 485      -0.349600
     24 O24         10.2460    -4.2720    -1.2340 oh         1 485      -0.600800
     25 O25          9.7500    -5.6380    -3.7380 oh         1 485      -0.611800
     26 O26          8.5440    -3.5250    -5.0660 oh         1 485      -0.588800
     27 C27         10.1240    -1.2700    -5.9680 c3         1 485      -0.083100
     28 H1          -0.3140     0.8880     0.0290 ho         1 485       0.433000
     29 H3           1.5150     0.0010     2.1380 ha         1 485       0.153500
     30 H4           3.9790    -0.0020     2.1330 ha         1 485       0.137500
     31 H6           3.9770     0.0040    -2.1370 ha         1 485       0.137500
     32 H7           1.5120     0.0040    -2.1390 ha         1 485       0.153500
     33 H81          5.9940     0.5080     0.8820 hc         1 485       0.111700
     34 H82          5.9940     0.5090    -0.8870 hc         1 485       0.111700
     35 H9           5.7790    -1.9540    -0.8880 hx         1 485       0.107700
     36 H101         4.6890    -2.3780     1.0720 hn         1 485       0.453800
     37 H102         6.1890    -2.9680     1.3430 hn         1 485       0.453800
     38 H13          7.8200    -1.4280    -2.0380 hn         1 485       0.330500
     39 H14         10.1480    -1.9560    -0.2880 h1         1 485       0.102700
     40 H18         11.3780    -2.1660    -2.4270 h1         1 485       0.077700
     41 H19          8.7070    -3.6130    -2.4410 h1         1 485       0.047700
     42 H20         11.4090    -4.4170    -3.5810 h1         1 485       0.053700
     43 H21         10.4380    -3.9580    -5.7660 h1         1 485       0.035700
     44 H2          11.5280    -2.0900    -4.5590 h1         1 485       0.048700
     45 H24          9.8440    -5.1230    -1.1740 ho         1 485       0.403000
     46 H25         10.4210    -6.2690    -3.9400 ho         1 485       0.402000
     47 H26          8.3220    -4.0140    -5.8410 ho         1 485       0.399000
     48 H271        10.6320    -0.3140    -5.9240 hc         1 485       0.047367
     49 H272         9.0540    -1.1090    -6.0200 hc         1 485       0.047367
     50 H273        10.4510    -1.8120    -6.8470 hc         1 485       0.047367
     51 H103         5.7520    -1.5360     1.9910 hn         1 485       0.453800
@<TRIPOS>BOND
     1     1     2 1
     2     1    28 1
     3     2     3 ar
     4     2     7 ar
     5     3     4 ar
     6     3    29 1
     7     4     5 ar
     8     4    30 1
     9     5     6 ar
    10     5     8 1
    11     6     7 ar
    12     6    31 1
    13     7    32 1
    14     8     9 1
    15     8    33 1
    16     8    34 1
    17     9    10 1
    18     9    11 1
    19     9    35 1
    20    10    36 1
    21    10    37 1
    22    11    12 2
    23    11    13 1
    24    13    14 1
    25    13    38 1
    26    14    15 1
    27    14    18 1
    28    14    39 1
    29    15    16 1
    30    15    17 1
    31    18    19 1
    32    18    23 1
    33    18    40 1
    34    19    20 1
    35    19    24 1
    36    19    41 1
    37    20    21 1
    38    20    25 1
    39    20    42 1
    40    21    22 1
    41    21    26 1
    42    21    43 1
    43    22    23 1
    44    22    27 1
    45    22    44 1
    46    24    45 1
    47    25    46 1
    48    26    47 1
    49    27    48 1
    50    27    49 1
    51    27    50 1
    52    51    10 1
@<TRIPOS>SUBSTRUCTURE
     1 485         1 TEMP              0 ****  ****    0 ROOT
