@<TRIPOS>MOLECULE
486
   67    71     1     0     0
SMALL
bcc


@<TRIPOS>ATOM
      1 O30          0.0000     0.0000     0.0000 o          1 486      -0.572100
      2 C2           1.2140     0.0000     0.0000 c          1 486       0.616300
      3 C1           1.9550     0.0000     1.3100 c3         1 486      -0.116400
      4 C3           1.9050     0.0000    -1.2240 ce         1 486      -0.254200
      5 C4           3.2450    -0.1680    -1.2580 cf         1 486       0.013800
      6 C7           4.0200    -0.0730    -2.5490 c3         1 486       0.018800
      7 C5           3.9830    -0.4580    -0.0290 cf         1 486      -0.133200
      8 C6           3.2090    -0.8710     1.2000 c3         1 486       0.024800
      9 C10          5.3040    -0.3670     0.0060 c2         1 486      -0.069400
     10 C14          5.9970    -0.7580     1.2960 c3         1 486       0.044800
     11 C18          6.5800    -2.1390     1.1470 ca         1 486      -0.124300
     12 C22          7.5000    -2.6030     2.0700 ca         1 486      -0.068000
     13 C23          8.0380    -3.8670     1.9370 ca         1 486      -0.183500
     14 C24          7.6520    -4.6750     0.8740 ca         1 486       0.075600
     15 N27          8.1940    -5.9550     0.7350 nh         1 486      -0.398000
     16 C29          9.0660    -6.4980     1.7800 c3         1 486       0.213600
     17 C28          7.8900    -6.7540    -0.4540 c3         1 486       0.213600
     18 C25          6.7290    -4.2060    -0.0520 ca         1 486      -0.183500
     19 C26          6.1910    -2.9430     0.0910 ca         1 486      -0.068000
     20 C13          7.1220     0.2330     1.6330 c3         1 486      -0.018400
     21 C12          8.0070     0.3450     0.4330 c3         1 486      -0.053000
     22 C19          8.4390    -1.0490    -0.0270 c3         1 486      -0.088100
     23 C17          9.2320     1.2440     0.5780 c3         1 486       0.312900
     24 C31          8.9840     2.2850     1.5900 c1         1 486      -0.210100
     25 C30          8.8060     3.1210     2.3930 c1         1 486      -0.103100
     26 C32          8.5670     3.8800     3.3650 c3         1 486       0.084000
     27 O3          10.3770     0.4680     0.9390 oh         1 486      -0.576800
     28 C16          9.4400     1.8890    -0.8130 c3         1 486      -0.059400
     29 C15          8.2680     1.3970    -1.7040 c3         1 486      -0.018400
     30 C11          7.1800     1.0440    -0.6810 c3         1 486      -0.050700
     31 C9           6.1300     0.0600    -1.1800 c3         1 486      -0.001500
     32 C8           5.2980     0.7150    -2.2710 c3         1 486      -0.023400
     33 HC1A         1.3100    -0.3960     2.0860 hc         1 486       0.037700
     34 HC12         2.2430     1.0140     1.5580 hc         1 486       0.037700
     35 HC3          1.3570     0.1380    -2.1490 ha         1 486       0.129000
     36 HC71         4.2720    -1.0670    -2.8980 hc         1 486       0.026700
     37 HC72         3.4270     0.4440    -3.2940 hc         1 486       0.026700
     38 HC61         2.9200    -1.9120     1.1130 hc         1 486       0.034200
     39 HC62         3.8250    -0.7310     2.0800 hc         1 486       0.034200
     40 HC14         5.2720    -0.7580     2.1010 hc         1 486       0.052700
     41 HC22         7.8000    -1.9720     2.8980 ha         1 486       0.113500
     42 HC23         8.7580    -4.2300     2.6600 ha         1 486       0.115500
     43 H291         8.5560    -6.4550     2.7350 h1         1 486       0.004033
     44 H292         9.9770    -5.9140     1.8300 h1         1 486       0.004033
     45 H293         9.3100    -7.5280     1.5480 h1         1 486       0.004033
     46 H281         8.1630    -6.1980    -1.3420 h1         1 486       0.004033
     47 H282         8.4530    -7.6790    -0.4210 h1         1 486       0.004033
     48 H283         6.8300    -6.9760    -0.4780 h1         1 486       0.004033
     49 HC25         6.4250    -4.8340    -0.8810 ha         1 486       0.115500
     50 HC26         5.4710    -2.5760    -0.6310 ha         1 486       0.113500
     51 H131         6.6980     1.2020     1.8660 hc         1 486       0.029700
     52 H132         7.6940    -0.1360     2.4770 hc         1 486       0.029700
     53 H191         9.3090    -0.9640    -0.6670 hc         1 486       0.041700
     54 H192         7.6300    -1.5150    -0.5760 hc         1 486       0.041700
     55 H193         8.6850    -1.6540     0.8370 hc         1 486       0.041700
     56 H321         8.2410     3.2900     4.2130 hc         1 486       0.025700
     57 H322         7.7880     4.5810     3.0920 hc         1 486       0.025700
     58 H323         9.4670     4.4240     3.6270 hc         1 486       0.025700
     59 HO3         11.0800     1.0430     1.1900 ho         1 486       0.392000
     60 H161         9.4130     2.9690    -0.7290 hc         1 486       0.026700
     61 H162        10.3850     1.5670    -1.2340 hc         1 486       0.026700
     62 H151         7.9300     2.1900    -2.3610 hc         1 486       0.020700
     63 H152         8.5600     0.5200    -2.2690 hc         1 486       0.020700
     64 HC11         6.7110     1.9420    -0.2970 hc         1 486       0.044700
     65 HC9          6.6290    -0.8080    -1.5930 hc         1 486       0.060700
     66 HC81         5.8860     0.7660    -3.1800 hc         1 486       0.021200
     67 HC82         5.0330     1.7180    -1.9580 hc         1 486       0.021200
@<TRIPOS>BOND
     1     1     2 2   
     2     2     3 1   
     3     2     4 1   
     4     3     8 1   
     5     3    33 1   
     6     3    34 1   
     7     4     5 2   
     8     4    35 1   
     9     5     6 1   
    10     5     7 1   
    11     6    32 1   
    12     6    36 1   
    13     6    37 1   
    14     7     8 1   
    15     7     9 2   
    16     8    38 1   
    17     8    39 1   
    18     9    10 1   
    19     9    31 1   
    20    10    11 1   
    21    10    20 1   
    22    10    40 1   
    23    11    12 ar  
    24    11    19 ar  
    25    12    13 ar  
    26    12    41 1   
    27    13    14 ar  
    28    13    42 1   
    29    14    15 1   
    30    14    18 ar  
    31    15    16 1   
    32    15    17 1   
    33    16    43 1   
    34    16    44 1   
    35    16    45 1   
    36    17    46 1   
    37    17    47 1   
    38    17    48 1   
    39    18    19 ar  
    40    18    49 1   
    41    19    50 1   
    42    20    21 1   
    43    20    51 1   
    44    20    52 1   
    45    21    22 1   
    46    21    23 1   
    47    21    30 1   
    48    22    53 1   
    49    22    54 1   
    50    22    55 1   
    51    23    24 1   
    52    23    27 1   
    53    23    28 1   
    54    24    25 3   
    55    25    26 1   
    56    26    56 1   
    57    26    57 1   
    58    26    58 1   
    59    27    59 1   
    60    28    29 1   
    61    28    60 1   
    62    28    61 1   
    63    29    30 1   
    64    29    62 1   
    65    29    63 1   
    66    30    31 1   
    67    30    64 1   
    68    31    32 1   
    69    31    65 1   
    70    32    66 1   
    71    32    67 1   
@<TRIPOS>SUBSTRUCTURE
     1 486         1 TEMP              0 ****  ****    0 ROOT
