@<TRIPOS>MOLECULE
molecule
   43    44     1     0     0
SMALL
bcc


@<TRIPOS>ATOM
      1 C4           0.0000     0.0000     0.0000 ca         1 487       0.976900
      2 C5          -2.1560    -0.0050    -1.1950 c3         1 487       0.240100
      3 C6           0.0410     0.0070    -2.4640 c3         1 487       0.240100
      4 N1           3.3690    -0.0010     1.1590 nv         1 487      -1.047500
      5 C7          -0.8330    -1.0090     5.7400 c3         1 487       0.178800
      6 C8          -0.0840    -1.8540     6.7930 c3         1 487      -0.078900
      7 N2           1.3280     0.0000     0.0000 nb         1 487      -0.868000
      8 C9          -0.3200    -3.3150     6.5070 c3         1 487      -0.081900
      9 C10          0.7780    -3.9320     5.6180 c3         1 487      -0.081900
     10 C11          1.1910    -2.9860     4.4770 c3         1 487      -0.078900
     11 C12         -0.0040    -2.2980     3.8660 c3         1 487       0.178800
     12 N3          -0.6910     0.0000    -1.1950 nh         1 487      -0.808300
     13 N4          -0.6640    -0.0050     1.1530 nb         1 487      -0.860000
     14 C3           1.9890     0.0000     1.1530 ca         1 487       0.990900
     15 N            1.3180    -0.0010     2.3020 nb         1 487      -0.815000
     16 C2          -0.0050    -0.0060     2.2980 ca         1 487       0.763300
     17 C1          -0.7600    -0.0070     3.6020 c3         1 487       0.150200
     18 C           -0.6980     1.3880     4.2280 c3         1 487      -0.086100
     19 N5          -0.1550    -0.9820     4.5180 n3         1 487      -0.731600
     20 H1          -2.5180     0.0260    -2.2150 h1         1 487       0.042533
     21 H2          -2.5140    -0.9060    -0.7120 h1         1 487       0.042533
     22 H3          -2.5200     0.8620    -0.6570 h1         1 487       0.042533
     23 H4          -0.6630     0.0140    -3.2870 h1         1 487       0.042533
     24 H5           0.6620    -0.8790    -2.5270 h1         1 487       0.042533
     25 H6           0.6660     0.8900    -2.5160 h1         1 487       0.042533
     26 H7           3.8690     0.8250     1.4220 hn         1 487       0.447300
     27 H8           3.8690    -0.8160     0.8630 hn         1 487       0.447300
     28 H9          -1.8190    -1.4310     5.5860 h1         1 487       0.030700
     29 H10         -0.9320     0.0050     6.1090 h1         1 487       0.030700
     30 H11         -0.4580    -1.6150     7.7810 hc         1 487       0.052950
     31 H12          0.9770    -1.6420     6.7390 hc         1 487       0.052950
     32 H13         -1.2750    -3.4230     6.0060 hc         1 487       0.036450
     33 H14         -0.3500    -3.8540     7.4470 hc         1 487       0.036450
     34 H15          0.4060    -4.8550     5.1910 hc         1 487       0.036450
     35 H16          1.6460    -4.1440     6.2300 hc         1 487       0.036450
     36 H17          1.6970    -3.5610     3.7100 hc         1 487       0.052950
     37 H18          1.8680    -2.2360     4.8680 hc         1 487       0.052950
     38 H19          0.1570    -2.1620     2.8030 h1         1 487       0.030700
     39 H20         -0.8930    -2.8930     4.0330 h1         1 487       0.030700
     40 H21         -1.7940    -0.2750     3.4190 h1         1 487       0.048700
     41 H22         -1.5780     1.5490     4.8390 hc         1 487       0.047033
     42 H23          0.1900     1.4680     4.8440 hc         1 487       0.047033
     43 H24         -0.6620     2.1350     3.4430 hc         1 487       0.047033
@<TRIPOS>BOND
     1     4    14 1
     2    14     7 ar
     3    14    15 ar
     4     7     1 ar
     5    15    16 ar
     6    18    17 1
     7     2    12 1
     8     1    12 1
     9     1    13 ar
    10    16    13 ar
    11    16    17 1
    12    12     3 1
    13    17    19 1
    14     5    19 1
    15     5     6 1
    16    19    11 1
    17     6     8 1
    18    11    10 1
    19     8     9 1
    20     9    10 1
    21     2    20 1
    22     2    21 1
    23     2    22 1
    24     3    23 1
    25     3    24 1
    26     3    25 1
    27     4    26 1
    28     4    27 1
    29     5    28 1
    30     5    29 1
    31     6    30 1
    32     6    31 1
    33     8    32 1
    34     8    33 1
    35     9    34 1
    36     9    35 1
    37    10    36 1
    38    10    37 1
    39    11    38 1
    40    11    39 1
    41    17    40 1
    42    18    41 1
    43    18    42 1
    44    18    43 1
@<TRIPOS>SUBSTRUCTURE
     1 487         1 TEMP              0 ****  ****    0 ROOT
