@<TRIPOS>MOLECULE
molecule
   36    38     1     0     0
SMALL
bcc


@<TRIPOS>ATOM
      1 C1           0.0000     0.0000     0.0000 ca         1 488       0.188100
      2 N1          -2.9180     0.0120     0.1830 n2         1 488      -0.541900
      3 O1          -0.6820     0.0000    -1.1730 oh         1 488      -0.432100
      4 S1          -3.1740     0.0180     2.6850 ss         1 488      -0.415300
      5 C2           1.3860     0.0000     0.0000 ca         1 488      -0.240000
      6 N2          -4.5160    -1.2830    -1.7710 n3         1 488      -0.652600
      7 S2          -6.7620    -1.1350    -0.4120 ss         1 488      -0.555200
      8 C3           2.0790     0.0000     1.1950 ca         1 488      -0.079000
      9 C4           1.3970     0.0010     2.3980 ca         1 488      -0.187000
     10 C5           0.0180     0.0010     2.4160 ca         1 488      -0.067000
     11 C6          -0.6940     0.0060     1.2160 ca         1 488      -0.140900
     12 C12         -2.1720     0.0110     1.2300 ce         1 488       0.530800
     13 C13         -4.7700     0.0220     1.8060 c3         1 488       0.008700
     14 C14         -4.3570     0.0170     0.3260 c3         1 488       0.115500
     15 C15         -4.9330    -1.2280    -0.3510 c3         1 488       0.313600
     16 C16         -6.9120    -1.2680    -2.2390 c3         1 488       0.064700
     17 C17         -5.5530    -1.9290    -2.5990 c3         1 488       0.053500
     18 C19         -5.2490    -1.7150    -4.0590 c          1 488       0.896600
     19 O20         -6.1520    -1.5850    -4.8510 o          1 488      -0.830300
     20 O21         -3.9750    -1.6680    -4.4800 o          1 488      -0.830300
     21 HO1         -0.0800     0.1290    -1.8870 ho         1 488       0.419000
     22 H2           1.9270    -0.0010    -0.9390 ha         1 488       0.133000
     23 H3           3.1620    -0.0000     1.1890 ha         1 488       0.122000
     24 H4           1.9480    -0.0010     3.3310 ha         1 488       0.125000
     25 H5          -0.5130     0.0040     3.3610 ha         1 488       0.145000
     26 H13         -5.3320     0.9180     2.0420 h1         1 488       0.083200
     27 H13A        -5.3390    -0.8680     2.0460 h1         1 488       0.083200
     28 H14         -4.7550     0.9030    -0.1540 h1         1 488       0.105700
     29 H15         -4.6200    -2.1260     0.1670 h2         1 488       0.084700
     30 H16         -7.7400    -1.9100    -2.5140 h1         1 488       0.077200
     31 H16A        -6.9990    -0.2880    -2.6930 h1         1 488       0.077200
     32 H17         -5.5910    -2.9890    -2.3780 h1         1 488       0.069700
     33 H18         -4.9920     0.7430    -2.0150 h1         1 488       0.053033
     34 H18A        -4.0950     0.0200    -3.3570 h1         1 488       0.053033
     35 H18B        -3.2660     0.3970    -1.8410 h1         1 488       0.053033
     36 C18         -4.1960     0.0570    -2.2790 c3         1 488       0.116100
@<TRIPOS>BOND
     1     1     3 1
     2     1     5 ar
     3     1    11 ar
     4     2    12 2
     5     2    14 1
     6     3    21 1
     7     4    12 1
     8     4    13 1
     9     5     8 ar
    10     5    22 1
    11     6    15 1
    12     6    17 1
    13     6    36 1
    14     7    15 1
    15     7    16 1
    16     8     9 ar
    17     8    23 1
    18     9    10 ar
    19     9    24 1
    20    10    11 ar
    21    10    25 1
    22    11    12 1
    23    13    14 1
    24    13    26 1
    25    13    27 1
    26    14    15 1
    27    14    28 1
    28    15    29 1
    29    16    17 1
    30    16    30 1
    31    16    31 1
    32    17    18 1
    33    17    32 1
    34    36    33 1
    35    36    34 1
    36    36    35 1
    37    18    19 1
    38    18    20 1
@<TRIPOS>SUBSTRUCTURE
     1 488         1 TEMP              0 ****  ****    0 ROOT
