@<TRIPOS>MOLECULE
molecule
   22    22     1     0     0
SMALL
bcc


@<TRIPOS>ATOM
      1 C4           0.0000     0.0000     0.0000 ca         1 489      -0.160500
      2 C5           1.3840     0.0000     0.0000 ca         1 489       0.177900
      3 C6           2.0760     0.0000     1.2010 ca         1 489      -0.160500
      4 C7           1.3830    -0.0000     2.3970 ca         1 489      -0.074500
      5 F            2.0600    -0.0010    -1.1700 f          1 489      -0.113900
      6 C3          -0.6910    -0.0000     1.1970 ca         1 489      -0.074500
      7 C2           0.0010    -0.0000     2.3950 ca         1 489      -0.181300
      8 C1          -0.7530     0.0010     3.7000 c3         1 489       0.186400
      9 O           -1.8850    -0.8650     3.5950 oh         1 489      -0.608800
     10 C           -1.2260     1.4210     4.0160 c3         1 489       0.091800
     11 N           -1.8560     1.4450     5.3430 nz         1 489      -0.810600
     12 H1          -0.5420    -0.0000    -0.9380 ha         1 489       0.166500
     13 H2           3.1590     0.0000     1.2020 ha         1 489       0.166500
     14 H3           1.9230    -0.0000     3.3360 ha         1 489       0.142500
     15 H4          -1.7740    -0.0010     1.1980 ha         1 489       0.142500
     16 H5          -0.1030    -0.3490     4.4930 h1         1 489       0.050700
     17 H6          -1.6980    -1.6820     4.0270 ho         1 489       0.437000
     18 H7          -0.3770     2.0940     4.0070 hx         1 489       0.123200
     19 H8          -1.9440     1.7370     3.2700 hx         1 489       0.123200
     20 H9          -2.7730     1.0500     5.2830 hn         1 489       0.458133
     21 H10         -1.9190     2.3900     5.6650 hn         1 489       0.458133
     22 HN3         -1.3030     0.9100     5.9840 hn         1 489       0.458133
@<TRIPOS>BOND
     1     5     2 1   
     2     3     2 ar  
     3     3     4 ar  
     4     2     1 ar  
     5     4     7 ar  
     6     1     6 ar  
     7    11    10 1   
     8     7     6 ar  
     9     7     8 1   
    10     8    10 1   
    11     8     9 1   
    12     1    12 1   
    13     3    13 1   
    14     4    14 1   
    15     6    15 1   
    16     8    16 1   
    17     9    17 1   
    18    10    18 1   
    19    10    19 1   
    20    11    20 1   
    21    11    21 1   
    22    22    11 1   
@<TRIPOS>SUBSTRUCTURE
     1 489         1 TEMP              0 ****  ****    0 ROOT
