@<TRIPOS>MOLECULE
molecule
   49    52     1     0     0
SMALL
bcc


@<TRIPOS>ATOM
      1 F23          0.0000     0.0000     0.0000 f          1 48B      -0.140900
      2 C17          1.3510     0.0000     0.0000 ca         1 48B      -0.236700
      3 C18          2.0580     0.0000     1.1880 ca         1 48B       0.495200
      4 N19          3.3830    -0.0020     1.1530 nb         1 48B      -0.805000
      5 C20          4.0340    -0.0020    -0.0000 ca         1 48B       0.961900
      6 N24          5.4200    -0.0040     0.0070 nu         1 48B      -0.751300
      7 C30          6.1150     0.1040     1.2180 ca         1 48B       0.151600
      8 C29          7.3210    -0.5620     1.3890 ca         1 48B      -0.132000
      9 C28          8.0050    -0.4550     2.5840 ca         1 48B      -0.135500
     10 C27          7.4880     0.3180     3.6130 ca         1 48B       0.085100
     11 O31          8.1620     0.4230     4.7890 oh         1 48B      -0.523100
     12 C26          6.2820     0.9840     3.4430 ca         1 48B      -0.135500
     13 C25          5.6000     0.8820     2.2470 ca         1 48B      -0.132000
     14 N21          3.3950    -0.0030    -1.1610 nb         1 48B      -0.834000
     15 C22          2.0670    -0.0060    -1.2010 ca         1 48B       0.737200
     16 N16          1.4000    -0.0120    -2.4170 nu         1 48B      -0.757300
     17 C11          2.1210     0.1040    -3.6120 ca         1 48B       0.136600
     18 C10          1.6760    -0.5440    -4.7570 ca         1 48B      -0.129500
     19 C12          3.2790     0.8710    -3.6520 ca         1 48B      -0.129500
     20 C13          3.9890     0.9840    -4.8300 ca         1 48B      -0.125000
     21 C14          3.5470     0.3320    -5.9740 ca         1 48B       0.036600
     22 C15          2.3870    -0.4300    -5.9350 ca         1 48B      -0.125000
     23 N9           4.2690     0.4490    -7.1690 ns         1 48B      -0.477100
     24 C7           4.3610    -0.6050    -8.0050 c          1 48B       0.671700
     25 O8           3.7480    -1.6260    -7.7660 o          1 48B      -0.575100
     26 C4           5.2070    -0.5170    -9.2130 ca         1 48B      -0.146600
     27 C5           5.3050    -1.6060   -10.0820 ca         1 48B       0.081400
     28 Cl1          4.4320    -3.0690    -9.7470 cl         1 48B      -0.056400
     29 C6           6.0980    -1.5160   -11.2100 ca         1 48B      -0.133000
     30 C3           5.9080     0.6570    -9.4940 ca         1 48B      -0.096000
     31 C2           6.6970     0.7330   -10.6230 ca         1 48B      -0.138000
     32 C1           6.7940    -0.3520   -11.4780 ca         1 48B      -0.095000
     33 H18          1.5350     0.0000     2.1370 h4         1 48B       0.043100
     34 HN24         5.9250    -0.0820    -0.8540 hn         1 48B       0.469800
     35 H29          7.7260    -1.1660     0.5860 ha         1 48B       0.147000
     36 H28          8.9460    -0.9750     2.7180 ha         1 48B       0.142000
     37 HO31         7.8820    -0.2600     5.3750 ho         1 48B       0.417000
     38 H26          5.8800     1.5890     4.2460 ha         1 48B       0.142000
     39 H25          4.6590     1.4020     2.1140 ha         1 48B       0.147000
     40 HN16         0.4010    -0.0740    -2.4400 hn         1 48B       0.469800
     41 H10          0.7710    -1.1390    -4.7270 ha         1 48B       0.147500
     42 H12          3.6240     1.3790    -2.7600 ha         1 48B       0.147500
     43 H13          4.8930     1.5800    -4.8620 ha         1 48B       0.150000
     44 H15          2.0420    -0.9360    -6.8280 ha         1 48B       0.150000
     45 HN9          4.6760     1.3270    -7.4230 hn         1 48B       0.323500
     46 H6           6.1770    -2.3610   -11.8840 ha         1 48B       0.150000
     47 H3           5.8330     1.5070    -8.8270 ha         1 48B       0.130000
     48 H2           7.2430     1.6430   -10.8410 ha         1 48B       0.138000
     49 H1           7.4150    -0.2870   -12.3630 ha         1 48B       0.140000
@<TRIPOS>BOND
     1     1     2 1
     2     2     3 ar
     3     2    15 ar
     4     3     4 ar
     5     4     5 ar
     6     5     6 1
     7     5    14 ar
     8     6     7 1
     9     7     8 ar
    10     7    13 ar
    11     8     9 ar
    12     9    10 ar
    13    10    11 1
    14    10    12 ar
    15    12    13 ar
    16    14    15 ar
    17    15    16 1
    18    16    17 1
    19    17    18 ar
    20    17    19 ar
    21    18    22 ar
    22    19    20 ar
    23    20    21 ar
    24    21    22 ar
    25    21    23 1
    26    23    24 1
    27    24    25 2
    28    24    26 1
    29    26    27 ar
    30    26    30 ar
    31    27    28 1
    32    27    29 ar
    33    29    32 ar
    34    30    31 ar
    35    31    32 ar
    36     3    33 1
    37     6    34 1
    38     8    35 1
    39     9    36 1
    40    11    37 1
    41    12    38 1
    42    13    39 1
    43    16    40 1
    44    18    41 1
    45    19    42 1
    46    20    43 1
    47    22    44 1
    48    23    45 1
    49    29    46 1
    50    30    47 1
    51    31    48 1
    52    32    49 1
@<TRIPOS>SUBSTRUCTURE
     1 48B         1 TEMP              0 ****  ****    0 ROOT
