@<TRIPOS>MOLECULE
48B
   49    52     1     0     0
SMALL
bcc


@<TRIPOS>ATOM
      1 F23          0.0000     0.0000     0.0000 f          1 48B      -0.119900
      2 C17          1.3510     0.0000     0.0000 ca         1 48B      -0.275700
      3 C18          2.0580     0.0000     1.1880 ca         1 48B       0.503200
      4 N19          3.3830    -0.0020     1.1530 nb         1 48B      -0.717000
      5 C20          4.0340    -0.0020    -0.0000 ca         1 48B       0.732900
      6 N24          5.4200    -0.0040     0.0070 nu         1 48B      -0.279300
      7 C30          6.1150     0.1040     1.2180 ca         1 48B      -0.019400
      8 C29          7.3210    -0.5620     1.3890 ca         1 48B      -0.099000
      9 C28          8.0050    -0.4550     2.5840 ca         1 48B      -0.119500
     10 C27          7.4880     0.3180     3.6130 ca         1 48B       0.108100
     11 O31          8.1620     0.4230     4.7890 oh         1 48B      -0.501100
     12 C26          6.2820     0.9840     3.4430 ca         1 48B      -0.119500
     13 C25          5.6000     0.8820     2.2470 ca         1 48B      -0.099000
     14 N21          3.3950    -0.0030    -1.1610 nb         1 48B      -0.735000
     15 C22          2.0670    -0.0060    -1.2010 ca         1 48B       0.549200
     16 N16          1.4000    -0.0120    -2.4170 nu         1 48B      -0.283300
     17 C11          2.1210     0.1040    -3.6120 ca         1 48B      -0.018400
     18 C10          1.6760    -0.5440    -4.7570 ca         1 48B      -0.103000
     19 C12          3.2790     0.8710    -3.6520 ca         1 48B      -0.103000
     20 C13          3.9890     0.9840    -4.8300 ca         1 48B      -0.096000
     21 C14          3.5470     0.3320    -5.9740 ca         1 48B      -0.106400
     22 C15          2.3870    -0.4300    -5.9350 ca         1 48B      -0.096000
     23 N9           4.2690     0.4490    -7.1690 ns         1 48B      -0.036100
     24 C7           4.3610    -0.6050    -8.0050 c          1 48B       0.585700
     25 O8           3.7480    -1.6260    -7.7660 o          1 48B      -0.631100
     26 C4           5.2070    -0.5170    -9.2130 ca         1 48B      -0.161600
     27 C5           5.3050    -1.6060   -10.0820 ca         1 48B       0.011400
     28 Cl1          4.4320    -3.0690    -9.7470 cl         1 48B       0.041600
     29 C6           6.0980    -1.5160   -11.2100 ca         1 48B      -0.113000
     30 C3           5.9080     0.6570    -9.4940 ca         1 48B      -0.074000
     31 C2           6.6970     0.7330   -10.6230 ca         1 48B      -0.112000
     32 C1           6.7940    -0.3520   -11.4780 ca         1 48B      -0.064000
     33 H18          1.5350     0.0000     2.1370 h4         1 48B      -0.007900
     34 HN24         5.9250    -0.0820    -0.8540 hn         1 48B       0.294800
     35 H29          7.7260    -1.1660     0.5860 ha         1 48B       0.120500
     36 H28          8.9460    -0.9750     2.7180 ha         1 48B       0.113000
     37 HO31         7.8820    -0.2600     5.3750 ho         1 48B       0.401000
     38 H26          5.8800     1.5890     4.2460 ha         1 48B       0.113000
     39 H25          4.6590     1.4020     2.1140 ha         1 48B       0.120500
     40 HN16         0.4010    -0.0740    -2.4400 hn         1 48B       0.297800
     41 H10          0.7710    -1.1390    -4.7270 ha         1 48B       0.121500
     42 H12          3.6240     1.3790    -2.7600 ha         1 48B       0.121500
     43 H13          4.8930     1.5800    -4.8620 ha         1 48B       0.125000
     44 H15          2.0420    -0.9360    -6.8280 ha         1 48B       0.125000
     45 HN9          4.6760     1.3270    -7.4230 hn         1 48B       0.171500
     46 H6           6.1770    -2.3610   -11.8840 ha         1 48B       0.118000
     47 H3           5.8330     1.5070    -8.8270 ha         1 48B       0.103000
     48 H2           7.2430     1.6430   -10.8410 ha         1 48B       0.108000
     49 H1           7.4150    -0.2870   -12.3630 ha         1 48B       0.106000
@<TRIPOS>BOND
     1     1     2 1   
     2     2     3 ar  
     3     2    15 ar  
     4     3     4 ar  
     5     3    33 1   
     6     4     5 ar  
     7     5     6 1   
     8     5    14 ar  
     9     6     7 1   
    10     6    34 1   
    11     7     8 ar  
    12     7    13 ar  
    13     8     9 ar  
    14     8    35 1   
    15     9    10 ar  
    16     9    36 1   
    17    10    11 1   
    18    10    12 ar  
    19    11    37 1   
    20    12    13 ar  
    21    12    38 1   
    22    13    39 1   
    23    14    15 ar  
    24    15    16 1   
    25    16    17 1   
    26    16    40 1   
    27    17    18 ar  
    28    17    19 ar  
    29    18    22 ar  
    30    18    41 1   
    31    19    20 ar  
    32    19    42 1   
    33    20    21 ar  
    34    20    43 1   
    35    21    22 ar  
    36    21    23 1   
    37    22    44 1   
    38    23    24 1   
    39    23    45 1   
    40    24    25 2   
    41    24    26 1   
    42    26    27 ar  
    43    26    30 ar  
    44    27    28 1   
    45    27    29 ar  
    46    29    32 ar  
    47    29    46 1   
    48    30    31 ar  
    49    30    47 1   
    50    31    32 ar  
    51    31    48 1   
    52    32    49 1   
@<TRIPOS>SUBSTRUCTURE
     1 48B         1 TEMP              0 ****  ****    0 ROOT
