@<TRIPOS>MOLECULE
48C
   42    43     1     0     0
SMALL
bcc


@<TRIPOS>ATOM
      1 OAZ         2.2560   -2.1600   -3.4340 o         1 48C     -0.847500
      2 CAU         2.4200   -1.6010   -2.3000 c         1 48C      0.856500
      3 NAT         3.1340   -2.2830   -1.3250 n         1 48C     -0.580500
      4 CAV         3.3630   -1.7650   -0.0170 c         1 48C      0.704700
      5 OBA         4.0140   -2.4560    0.7680 o         1 48C     -0.519500
      6 CAX         2.7800   -0.4430    0.2410 cc        1 48C     -0.244200
      7 CAY         2.0920    0.2100   -0.7230 cd        1 48C      0.022600
      8 NAW         1.9000   -0.3290   -2.0090 n         1 48C     -0.384000
      9 CBB         1.1430    0.4880   -2.9500 c3        1 48C      0.316500
     10 OBE         0.4580   -0.3060   -3.9320 os        1 48C     -0.427600
     11 CBD         2.0030    1.5480   -3.7130 c3        1 48C      0.075100
     12 OBG         1.4390    2.7950   -3.3680 oh        1 48C     -0.583800
     13 CBC         1.7930    1.2640   -5.2170 c3        1 48C      0.109100
     14 OBH         1.2810    2.3600   -5.9210 oh        1 48C     -0.555800
     15 CBF         0.8150    0.0670   -5.2640 c3        1 48C      0.079100
     16 CAA         1.4660   -1.1320   -5.9720 c3        1 48C      0.106800
     17 NAB         0.6910   -2.3950   -5.7020 n4        1 48C     -0.648800
     18 C           1.3890   -3.5900   -6.2350 c         1 48C      0.521100
     19 O           1.5000   -3.7260   -7.4470 o         1 48C     -0.393100
     20 CA          1.9250   -4.5900   -5.2010 c3        1 48C      0.048500
     21 N           2.8790   -5.5500   -5.8550 n4        1 48C     -0.839600
     22 CB          0.7570   -5.3220   -4.5480 c3        1 48C     -0.151100
     23 H1          3.5130   -3.1740   -1.5630 hn        1 48C      0.343500
     24 H2          2.9350   -0.0240    1.2490 ha        1 48C      0.218000
     25 H3          1.6430    1.2110   -0.5560 h4        1 48C      0.200000
     26 H4          0.3140    1.0060   -2.3660 h2        1 48C      0.140700
     27 H5          3.0910    1.5050   -3.4450 h1        1 48C      0.093700
     28 H6          2.0640    3.4870   -3.6320 ho        1 48C      0.453000
     29 H7          2.7670    1.0260   -5.7290 h1        1 48C      0.105700
     30 H8          0.5800    2.7770   -5.3920 ho        1 48C      0.442000
     31 H9         -0.1480    0.3560   -5.7750 h1        1 48C      0.117700
     32 H10         1.4940   -0.9500   -7.0850 hx        1 48C      0.125700
     33 H11         2.5080   -1.2910   -5.5700 hx        1 48C      0.125700
     34 H12         0.5900   -2.4560   -4.6630 hn        1 48C      0.498800
     35 H13         2.5110   -4.0170   -4.3980 hx        1 48C      0.195700
     36 H14         3.1490   -6.2720   -5.1710 hn        1 48C      0.486133
     37 H15         3.7210   -5.0590   -6.1810 hn        1 48C      0.486133
     38 H17         1.1220   -6.1060   -3.8350 hc        1 48C      0.106700
     39 H18         0.1540   -4.5940   -3.9460 hc        1 48C      0.106700
     40 H19         0.0910   -5.8090   -5.3040 hc        1 48C      0.106700
     41 HAB2       -0.2420   -2.3150   -6.1320 hn        1 48C      0.498800
     42 HN3         2.4330   -6.0080   -6.6640 hn        1 48C      0.486133
@<TRIPOS>BOND
     1    1    2 2   
     2    2    3 1   
     3    2    8 1   
     4    3    4 1   
     5    3   23 1   
     6    4    5 2   
     7    4    6 1   
     8    6    7 2   
     9    6   24 1   
    10    7    8 1   
    11    7   25 1   
    12    8    9 1   
    13    9   10 1   
    14    9   11 1   
    15    9   26 1   
    16   10   15 1   
    17   11   12 1   
    18   11   13 1   
    19   11   27 1   
    20   12   28 1   
    21   13   14 1   
    22   13   15 1   
    23   13   29 1   
    24   14   30 1   
    25   15   16 1   
    26   15   31 1   
    27   16   17 1   
    28   16   32 1   
    29   16   33 1   
    30   17   18 1   
    31   17   34 1   
    32   17   41 1   
    33   18   19 2   
    34   18   20 1   
    35   20   21 1   
    36   20   22 1   
    37   20   35 1   
    38   21   36 1   
    39   21   37 1   
    40   21   42 1   
    41   22   38 1   
    42   22   39 1   
    43   22   40 1   
@<TRIPOS>SUBSTRUCTURE
     1 48C         1 TEMP              0 ****  ****    0 ROOT
