@<TRIPOS>MOLECULE
48D
   48    48     1     0     0
SMALL
bcc


@<TRIPOS>ATOM
      1 C1          0.3170   -0.7980   -0.1230 c3        1 48D     -0.064900
      2 C2          1.5460    0.0380   -0.1740 c2        1 48D     -0.106400
      3 C3          2.2230    0.3780    0.9330 c2        1 48D     -0.184200
      4 C4          1.8330   -0.0340    2.3110 c3        1 48D     -0.027500
      5 C5          0.9560    1.0160    2.9630 c3        1 48D     -0.085100
      6 C6          3.0800   -0.3850    3.1400 c3        1 48D      0.160100
      7 O7          2.6620   -1.4090    4.0350 oh        1 48D     -0.607800
      8 C8          3.6820    0.7830    3.9530 c3        1 48D      0.141300
      9 O9          4.6710    0.1560    4.7860 os        1 48D     -0.438600
     10 C10         5.0470    0.9460    5.9010 c3        1 48D      0.119700
     11 C11         4.2610    1.8630    3.1030 c2        1 48D     -0.213200
     12 C12         5.4510    1.8800    2.4970 c2        1 48D     -0.133200
     13 C13         6.4700    0.8050    2.5290 c3        1 48D     -0.058200
     14 C14         7.1430    0.5860    1.1870 c3        1 48D     -0.074400
     15 C15         6.2190   -0.0060    0.1420 c3        1 48D     -0.072400
     16 C16         5.5150    1.0630   -0.6680 c3        1 48D     -0.182400
     17 C17         4.4540    0.4810   -1.5600 c         1 48D      0.570100
     18 O18         4.6250   -0.5720   -2.1820 o         1 48D     -0.533100
     19 C19         3.1860    1.2820   -1.6910 c3        1 48D     -0.179400
     20 C20         1.9420    0.4310   -1.5560 c3        1 48D     -0.037200
     21 H1         -0.4080   -0.3870    0.6230 hc        1 48D      0.044700
     22 H1A         0.5760   -1.8440    0.1810 hc        1 48D      0.044700
     23 H1B        -0.1910   -0.8410   -1.1180 hc        1 48D      0.044700
     24 H3          3.1380    0.9940    0.8810 ha        1 48D      0.125000
     25 H4          1.2300   -0.9920    2.2560 hc        1 48D      0.077700
     26 H5          0.0010    1.1170    2.3920 hc        1 48D      0.037367
     27 H5A         1.4620    2.0110    2.9780 hc        1 48D      0.037367
     28 H5B         0.7160    0.7130    4.0110 hc        1 48D      0.037367
     29 H6          3.8820   -0.7940    2.4600 h1        1 48D      0.048700
     30 HO7         3.4270   -1.6430    4.5770 ho        1 48D      0.418000
     31 H8          2.8830    1.2190    4.6200 h1        1 48D      0.056700
     32 H10         5.4760    1.9210    5.5630 h1        1 48D      0.035700
     33 H10A        5.8220    0.3350    6.4270 h1        1 48D      0.035700
     34 H10B        4.1690    1.1260    6.5690 h1        1 48D      0.035700
     35 H11         3.5890    2.7340    2.9920 ha        1 48D      0.122000
     36 H12         5.7470    2.7750    1.9190 ha        1 48D      0.115000
     37 H13         6.0140   -0.1590    2.8860 hc        1 48D      0.060200
     38 H13A        7.2540    1.0920    3.2840 hc        1 48D      0.060200
     39 H14         8.0040   -0.1180    1.3440 hc        1 48D      0.041200
     40 H14A        7.5710    1.5540    0.8140 hc        1 48D      0.041200
     41 H15         6.8050   -0.6590   -0.5590 hc        1 48D      0.055700
     42 H15A        5.4540   -0.6620    0.6360 hc        1 48D      0.055700
     43 H16         6.2570    1.5990   -1.3190 hc        1 48D      0.062700
     44 H16A        5.0640    1.8230    0.0240 hc        1 48D      0.062700
     45 H19         3.1650    2.1230   -0.9510 hc        1 48D      0.063200
     46 H19A        3.1930    1.7420   -2.7180 hc        1 48D      0.063200
     47 H20         1.0810    0.9940   -2.0130 hc        1 48D      0.062200
     48 H20A        2.0840   -0.5090   -2.1600 hc        1 48D      0.062200
@<TRIPOS>BOND
     1    1    2 1   
     2    1   21 1   
     3    1   22 1   
     4    1   23 1   
     5    2    3 2   
     6    2   20 1   
     7    3    4 1   
     8    3   24 1   
     9    4    5 1   
    10    4    6 1   
    11    4   25 1   
    12    5   26 1   
    13    5   27 1   
    14    5   28 1   
    15    6    7 1   
    16    6    8 1   
    17    6   29 1   
    18    7   30 1   
    19    8    9 1   
    20    8   11 1   
    21    8   31 1   
    22    9   10 1   
    23   10   32 1   
    24   10   33 1   
    25   10   34 1   
    26   11   12 2   
    27   11   35 1   
    28   12   13 1   
    29   12   36 1   
    30   13   14 1   
    31   13   37 1   
    32   13   38 1   
    33   14   15 1   
    34   14   39 1   
    35   14   40 1   
    36   15   16 1   
    37   15   41 1   
    38   15   42 1   
    39   16   17 1   
    40   16   43 1   
    41   16   44 1   
    42   17   18 2   
    43   17   19 1   
    44   19   20 1   
    45   19   45 1   
    46   19   46 1   
    47   20   47 1   
    48   20   48 1   
@<TRIPOS>SUBSTRUCTURE
     1 48D         1 TEMP              0 ****  ****    0 ROOT
