@<TRIPOS>MOLECULE
molecule
   48    48     1     0     0
SMALL
bcc


@<TRIPOS>ATOM
      1 C1           0.0000     0.0000     0.0000 c3         1 48D      -0.146900
      2 C2           1.5060     0.0000     0.0000 c2         1 48D       0.061600
      3 C3           2.1950     0.0000     1.1100 c2         1 48D      -0.621200
      4 C4           1.5550    -0.0330     2.4690 c3         1 48D      -0.035500
      5 C5           1.1560     1.3700     2.9180 c3         1 48D      -0.157100
      6 C6           2.4880    -0.6920     3.4790 c3         1 48D       0.185100
      7 O7           1.7380    -1.0170     4.6570 oh         1 48D      -0.601800
      8 C8           3.6750     0.1800     3.8610 c3         1 48D       0.180300
      9 O9           4.0080    -0.0670     5.2380 os         1 48D      -0.409600
     10 C10          4.5770     1.0600     5.9100 c3         1 48D       0.128700
     11 C11          4.8780    -0.1660     3.0170 c2         1 48D      -0.156200
     12 C12          5.8960     0.6590     2.9950 c2         1 48D      -0.182200
     13 C13          7.1190     0.3440     2.1750 c3         1 48D      -0.043200
     14 C14          7.2530     1.3800     1.0560 c3         1 48D      -0.080400
     15 C15          6.7450     0.7700    -0.2530 c3         1 48D      -0.071400
     16 C16          5.6250     1.6390    -0.8270 c3         1 48D      -0.177400
     17 C17          4.5810     0.7600    -1.4630 c          1 48D       0.585100
     18 O18          4.9030    -0.2790    -1.9800 o          1 48D      -0.531100
     19 C19          3.1350     1.1870    -1.4540 c3         1 48D      -0.164400
     20 C20          2.2280    -0.0340    -1.3250 c3         1 48D      -0.039200
     21 H1          -0.3610     0.9650     0.3330 hc         1 48D       0.051700
     22 H1A         -0.3610    -0.1940    -1.0030 hc         1 48D       0.051700
     23 H1B         -0.3610    -0.7720     0.6690 hc         1 48D       0.051700
     24 H3           1.6560     0.8350     1.5410 ha         1 48D       0.372000
     25 H4           0.6550    -0.6330     2.4020 hc         1 48D       0.046700
     26 H5           1.0040     1.3760     3.9900 hc         1 48D       0.060367
     27 H5A          1.9430     2.0690     2.6600 hc         1 48D       0.060367
     28 H5B          0.2380     1.6610     2.4210 hc         1 48D       0.060367
     29 H6           2.8650    -1.6120     3.0480 h1         1 48D       0.061700
     30 HO7          1.6230    -1.9510     4.7090 ho         1 48D       0.405000
     31 H8           3.4220     1.2250     3.7270 h1         1 48D       0.041700
     32 H10          4.3470     1.9630     5.3580 h1         1 48D       0.028033
     33 H10A         5.6520     0.9380     5.9730 h1         1 48D       0.028033
     34 H10B         4.1630     1.1310     6.9090 h1         1 48D       0.028033
     35 H11          4.9040    -1.0860     2.4450 ha         1 48D       0.143000
     36 H12          5.8610     1.5720     3.5770 ha         1 48D       0.113000
     37 H13          7.9980     0.3790     2.8070 hc         1 48D       0.048700
     38 H13A         7.0220    -0.6440     1.7430 hc         1 48D       0.048700
     39 H14          8.2930     1.6620     0.9450 hc         1 48D       0.040200
     40 H14A         6.6640     2.2560     1.3000 hc         1 48D       0.040200
     41 H15          7.5590     0.7150    -0.9650 hc         1 48D       0.056200
     42 H15A         6.3650    -0.2270    -0.0620 hc         1 48D       0.056200
     43 H16          6.0350     2.3090    -1.5730 hc         1 48D       0.061200
     44 H16A         5.1730     2.2180    -0.0310 hc         1 48D       0.061200
     45 H19          2.9630     1.8530    -0.6170 hc         1 48D       0.059700
     46 H19A         2.9090     1.7060    -2.3780 hc         1 48D       0.059700
     47 H20          2.8270    -0.9350    -1.3840 hc         1 48D       0.070200
     48 H20A         1.5030    -0.0310    -2.1300 hc         1 48D       0.070200
@<TRIPOS>BOND
     1     1     2 1
     2     2     3 2
     3     2    20 1
     4     3     4 1
     5     4     5 1
     6     4     6 1
     7     6     7 1
     8     6     8 1
     9     8     9 1
    10     8    11 1
    11     9    10 1
    12    11    12 2
    13    12    13 1
    14    13    14 1
    15    14    15 1
    16    15    16 1
    17    16    17 1
    18    17    18 2
    19    17    19 1
    20    19    20 1
    21     1    21 1
    22     1    22 1
    23     1    23 1
    24     3    24 1
    25     4    25 1
    26     5    26 1
    27     5    27 1
    28     5    28 1
    29     6    29 1
    30     7    30 1
    31     8    31 1
    32    10    32 1
    33    10    33 1
    34    10    34 1
    35    11    35 1
    36    12    36 1
    37    13    37 1
    38    13    38 1
    39    14    39 1
    40    14    40 1
    41    15    41 1
    42    15    42 1
    43    16    43 1
    44    16    44 1
    45    19    45 1
    46    19    46 1
    47    20    47 1
    48    20    48 1
@<TRIPOS>SUBSTRUCTURE
     1 48D         1 TEMP              0 ****  ****    0 ROOT
