@<TRIPOS>MOLECULE
48E
   55    58     1     0     0
SMALL
bcc


@<TRIPOS>ATOM
      1 OAG          0.0000     0.0000     0.0000 o          1 48E      -0.695500
      2 CAB          1.2160     0.0000     0.0000 c          1 48E       0.592500
      3 NAA          1.8790     0.0000     1.1720 ns         1 48E      -0.126500
      4 CAC          3.2270     0.0000     1.1890 c          1 48E       0.609700
      5 OAH          3.8280     0.0000     2.2480 o          1 48E      -0.648500
      6 CAE          3.9380    -0.0010    -0.0360 cc         1 48E      -0.287200
      7 CAF          3.2470    -0.0010    -1.1960 cd         1 48E      -0.092400
      8 NAD          1.8790    -0.0050    -1.1700 n          1 48E       0.046000
      9 CAI          1.1300    -0.0110    -2.4290 c3         1 48E       0.202500
     10 OAL          1.5870    -1.0830    -3.2820 os         1 48E      -0.408600
     11 CAK          1.4100     1.2800    -3.2280 c3         1 48E       0.121100
     12 OAN          0.3640     2.2320    -3.0280 oh         1 48E      -0.538800
     13 CAJ          1.4430     0.8120    -4.7000 c3         1 48E       0.142100
     14 OAO          0.4160     1.4590    -5.4540 oh         1 48E      -0.547800
     15 CAM          1.1760    -0.7100    -4.6150 c3         1 48E       0.148100
     16 CAP          2.0100    -1.4560    -5.6590 c3         1 48E       0.051000
     17 NAQ          1.6550    -2.8780    -5.6430 ns         1 48E      -0.183900
     18 C            2.2660    -3.7340    -6.4840 c          1 48E       0.557100
     19 O            3.1100    -3.3290    -7.2540 o          1 48E      -0.618100
     20 CA           1.9010    -5.1960    -6.4680 c3         1 48E      -0.143000
     21 CB           0.4140    -5.3540    -6.7950 c3         1 48E       0.212400
     22 OG           0.0420    -6.7270    -6.6640 oh         1 48E      -0.579800
     23 N            2.6990    -5.9100    -7.4670 na         1 48E       0.640400
     24 CAY          2.3990    -6.0290    -8.7800 cc         1 48E      -0.436600
     25 NAX          3.8060    -6.5260    -7.2430 nc         1 48E      -0.373800
     26 NAZ          4.2560    -7.0500    -8.3290 nd         1 48E      -0.305000
     27 CBA          3.4070    -6.7670    -9.3310 cd         1 48E       0.337800
     28 CBB          3.5380    -7.1720   -10.7530 ca         1 48E      -0.099500
     29 CBF          4.6320    -7.9310   -11.1650 ca         1 48E      -0.087500
     30 CBD          4.7500    -8.3060   -12.4880 ca         1 48E      -0.104500
     31 CBC          3.7850    -7.9290   -13.4050 ca         1 48E      -0.102000
     32 CBE          2.6980    -7.1750   -13.0010 ca         1 48E      -0.104500
     33 CBG          2.5670    -6.8010   -11.6790 ca         1 48E      -0.087500
     34 H1           1.3700    -0.0000     2.0330 hn         1 48E       0.209500
     35 H2           5.0210     0.0010    -0.0420 ha         1 48E       0.152000
     36 H3           3.7730    -0.0030    -2.1430 h4         1 48E       0.138000
     37 H4           0.0680    -0.1110    -2.2410 h2         1 48E       0.095700
     38 H5           2.3690     1.6980    -2.9450 h1         1 48E       0.017700
     39 H6           0.7380     3.0770    -2.8410 ho         1 48E       0.393000
     40 H7           2.4170     1.0010    -5.1350 h1         1 48E       0.019700
     41 H8           0.8070     1.9990    -6.1200 ho         1 48E       0.393000
     42 H9           0.1210    -0.9130    -4.7530 h1         1 48E       0.047700
     43 H10          1.8110    -1.0450    -6.6410 h1         1 48E       0.038700
     44 H11          3.0620    -1.3440    -5.4280 h1         1 48E       0.038700
     45 H12          0.9880    -3.2190    -4.9790 hn         1 48E       0.184500
     46 H13          2.1000    -5.6070    -5.4850 h1         1 48E       0.082700
     47 H14         -0.1720    -4.7540    -6.1090 h1         1 48E       0.003700
     48 H15          0.2310    -5.0240    -7.8100 h1         1 48E       0.003700
     49 H16         -0.8960    -6.7930    -6.5920 ho         1 48E       0.405000
     50 H17          1.5340    -5.6230    -9.2900 h4         1 48E       0.162000
     51 H18          5.3890    -8.2270   -10.4480 ha         1 48E       0.112000
     52 H19          5.5990    -8.8960   -12.8100 ha         1 48E       0.101500
     53 H20          3.8830    -8.2230   -14.4430 ha         1 48E       0.100000
     54 H21          1.9440    -6.8850   -13.7220 ha         1 48E       0.101500
     55 H22          1.7150    -6.2100   -11.3640 ha         1 48E       0.112000
@<TRIPOS>BOND
     1     1     2 2   
     2     2     3 1   
     3     2     8 1   
     4     3     4 1   
     5     3    34 1   
     6     4     5 2   
     7     4     6 1   
     8     6     7 2   
     9     6    35 1   
    10     7     8 1   
    11     7    36 1   
    12     8     9 1   
    13     9    10 1   
    14     9    11 1   
    15     9    37 1   
    16    10    15 1   
    17    11    12 1   
    18    11    13 1   
    19    11    38 1   
    20    12    39 1   
    21    13    14 1   
    22    13    15 1   
    23    13    40 1   
    24    14    41 1   
    25    15    16 1   
    26    15    42 1   
    27    16    17 1   
    28    16    43 1   
    29    16    44 1   
    30    17    18 1   
    31    17    45 1   
    32    18    19 2   
    33    18    20 1   
    34    20    21 1   
    35    20    23 1   
    36    20    46 1   
    37    21    22 1   
    38    21    47 1   
    39    21    48 1   
    40    22    49 1   
    41    23    24 1   
    42    23    25 1   
    43    24    27 2   
    44    24    50 1   
    45    25    26 2   
    46    26    27 1   
    47    27    28 1   
    48    28    29 ar  
    49    28    33 ar  
    50    29    30 ar  
    51    29    51 1   
    52    30    31 ar  
    53    30    52 1   
    54    31    32 ar  
    55    31    53 1   
    56    32    33 ar  
    57    32    54 1   
    58    33    55 1   
@<TRIPOS>SUBSTRUCTURE
     1 48E         1 TEMP              0 ****  ****    0 ROOT
