@<TRIPOS>MOLECULE
48F
   57    59     1     0     0
SMALL
bcc


@<TRIPOS>ATOM
      1 O1A          0.0000     0.0000     0.0000 o          1 48F      -0.674500
      2 PA           1.6100     0.0000     0.0000 p5         1 48F       0.954800
      3 O2A          2.1050     0.0000     1.3950 o          1 48F      -0.674500
      4 O3A          2.1470    -1.3140    -0.7590 os         1 48F      -0.491800
      5 PB           2.2380    -2.8730    -0.3680 p5         1 48F       0.957800
      6 O1B          0.9630    -3.3010     0.2510 o          1 48F      -0.673000
      7 O5D          2.5100    -3.7450    -1.6940 os         1 48F      -0.510200
      8 C5D          2.5370    -5.1740    -1.6940 c3         1 48F       0.294400
      9 C4D          2.8200    -5.6780    -3.1100 c3         1 48F       0.166100
     10 O4D          4.1310    -5.2740    -3.5080 oh         1 48F      -0.608800
     11 C3D          2.7270    -7.2050    -3.1370 c3         1 48F       0.092100
     12 C2D          3.0050    -7.7020    -4.5320 c          1 48F       0.557100
     13 C1D          4.4250    -7.8180    -5.0210 c3         1 48F       0.115400
     14 O1D          4.4280    -8.3070    -6.3640 oh         1 48F      -0.576800
     15 O2D          2.0900    -8.0080    -5.2570 o          1 48F      -0.537100
     16 O3D          1.4150    -7.6100    -2.7390 oh         1 48F      -0.542800
     17 O2B          3.4430    -3.0950     0.6760 o          1 48F      -0.673000
     18 O5'          2.1460     1.3150    -0.7600 os         1 48F      -0.498200
     19 C5'          1.9280     2.6390    -0.2700 c3         1 48F       0.308400
     20 C4'          2.5660     3.6480    -1.2280 c3         1 48F       0.138100
     21 O4'          1.8780     3.6280    -2.4890 os         1 48F      -0.362600
     22 C1'          1.8970     4.9760    -3.0030 c3         1 48F       0.135800
     23 C2'          1.6470     5.8470    -1.7440 c3         1 48F       0.119100
     24 O2'          2.1810     7.1610    -1.9180 oh         1 48F      -0.554800
     25 C3'          2.4300     5.0720    -0.6540 c3         1 48F       0.124100
     26 O3'          3.7190     5.6560    -0.4550 oh         1 48F      -0.566800
     27 N9           0.8270     5.1710    -3.9840 na         1 48F       0.229000
     28 C8          -0.3280     4.4520    -4.0720 cc         1 48F       0.287700
     29 N7          -1.0520     4.8930    -5.0590 nd         1 48F      -0.531100
     30 C5          -0.4090     5.9200    -5.6660 ca         1 48F      -0.237200
     31 C4           0.8020     6.1140    -4.9810 ca         1 48F       0.260800
     32 C6          -0.6980     6.7600    -6.7560 ca         1 48F       0.583200
     33 N6          -1.8770     6.6200    -7.4650 nv         1 48F      -0.504500
     34 N1           0.1890     7.6930    -7.0870 nb         1 48F      -0.764000
     35 C2           1.3170     7.8340    -6.4160 ca         1 48F       0.658900
     36 N3           1.6230     7.0790    -5.3820 nb         1 48F      -0.652000
     37 H2           3.3160    -5.5200    -1.0250 h1         1 48F      -0.008800
     38 H3           1.5790    -5.5530    -1.3610 h1         1 48F      -0.008800
     39 H4           2.0910    -5.2600    -3.7940 h1         1 48F       0.017700
     40 H5           4.0690    -4.5470    -4.1050 ho         1 48F       0.400000
     41 H6           3.4560    -7.6230    -2.4530 h1         1 48F       0.013700
     42 H7           4.8980    -6.8440    -4.9910 h1         1 48F       0.016200
     43 H8           4.9710    -8.5050    -4.3860 h1         1 48F       0.016200
     44 H9           5.2780    -8.6580    -6.5690 ho         1 48F       0.373000
     45 H10          1.4420    -8.4980    -2.4250 ho         1 48F       0.373000
     46 H12          2.3760     2.7400     0.7110 h1         1 48F      -0.017300
     47 H13          0.8640     2.8290    -0.2020 h1         1 48F      -0.017300
     48 H14          3.6120     3.4110    -1.3770 h1         1 48F       0.043700
     49 H15          2.8650     5.2040    -3.4340 h2         1 48F       0.061700
     50 H16          0.5910     5.8800    -1.5050 h1         1 48F       0.018700
     51 H17          1.6970     7.7700    -1.3850 ho         1 48F       0.376000
     52 H18          1.8690     5.0530     0.2720 h1         1 48F       0.019700
     53 H19          3.8250     5.8830     0.4540 ho         1 48F       0.381000
     54 H20         -0.6020     3.6350    -3.4160 h5         1 48F       0.065800
     55 H21         -2.0700     7.2250    -8.2390 hn         1 48F       0.270800
     56 H22         -2.5370     5.9140    -7.2040 hn         1 48F       0.270800
     57 H23          2.0120     8.6070    -6.7200 h5         1 48F      -0.015900
@<TRIPOS>BOND
     1     1     2 1   
     2     2     3 1   
     3     2     4 1   
     4     2    18 1   
     5     4     5 1   
     6     5     6 1   
     7     5     7 1   
     8     5    17 1   
     9     7     8 1   
    10     8     9 1   
    11     8    37 1   
    12     8    38 1   
    13     9    10 1   
    14     9    11 1   
    15     9    39 1   
    16    10    40 1   
    17    11    12 1   
    18    11    16 1   
    19    11    41 1   
    20    12    13 1   
    21    12    15 2   
    22    13    14 1   
    23    13    42 1   
    24    13    43 1   
    25    14    44 1   
    26    16    45 1   
    27    18    19 1   
    28    19    20 1   
    29    19    46 1   
    30    19    47 1   
    31    20    21 1   
    32    20    25 1   
    33    20    48 1   
    34    21    22 1   
    35    22    23 1   
    36    22    27 1   
    37    22    49 1   
    38    23    24 1   
    39    23    25 1   
    40    23    50 1   
    41    24    51 1   
    42    25    26 1   
    43    25    52 1   
    44    26    53 1   
    45    27    28 1   
    46    27    31 1   
    47    28    29 2   
    48    28    54 1   
    49    29    30 1   
    50    30    31 ar  
    51    30    32 ar  
    52    31    36 ar  
    53    32    33 1   
    54    32    34 ar  
    55    33    55 1   
    56    33    56 1   
    57    34    35 ar  
    58    35    36 ar  
    59    35    57 1   
@<TRIPOS>SUBSTRUCTURE
     1 48F         1 TEMP              0 ****  ****    0 ROOT
