@<TRIPOS>MOLECULE
48H
   60    62     1     0     0
SMALL
bcc


@<TRIPOS>ATOM
      1 C1           0.0000     0.0000     0.0000 ca         1 48H       0.650900
      2 C2           1.9940     0.0000     1.1430 ca         1 48H       0.254800
      3 C3           1.2860    -0.0000     2.3560 ca         1 48H      -0.234200
      4 C4          -0.1180    -0.0060     2.3060 ca         1 48H       0.581200
      5 C5           3.4000    -0.0010     2.8410 cc         1 48H       0.295700
      6 O1           9.2470    -0.0150     4.3430 o          1 48H      -0.675000
      7 P1           9.6680    -0.8060     3.0070 p5         1 48H       0.944800
      8 O2          10.8380    -0.1430     2.3880 o          1 48H      -0.675000
      9 O3          10.0470    -2.3270     3.3760 os         1 48H      -0.490800
     10 P2          11.3180    -3.0230     4.0770 p5         1 48H       0.953800
     11 O4          12.5470    -3.0650     3.0390 o          1 48H      -0.667000
     12 O5          11.7080    -2.2460     5.2740 o          1 48H      -0.667000
     13 O6          10.9330    -4.5250     4.5140 os         1 48H      -0.509200
     14 C6          11.8160    -5.3700     5.2550 c3         1 48H       0.304400
     15 C7          11.1420    -6.7200     5.5010 c3         1 48H       0.076100
     16 O7          10.9400    -7.3870     4.2530 oh         1 48H      -0.567800
     17 C8          12.0200    -7.5670     6.3860 c          1 48H       0.541800
     18 O8          12.7180    -8.4250     5.9000 o          1 48H      -0.611100
     19 C9          12.0280    -7.3480     7.8470 ce         1 48H       0.190300
     20 C10         12.9070    -8.1940     8.7310 c3         1 48H      -0.051400
     21 N1          11.2830    -6.4300     8.3650 n2         1 48H      -0.351900
     22 C11         11.1990    -6.2910     9.8200 c3         1 48H      -0.004200
     23 C12         11.7870    -4.9670    10.2330 c          1 48H       0.969600
     24 O9          11.8190    -4.6210    11.5300 o          1 48H      -0.873800
     25 O10         12.2310    -4.2160     9.3980 o          1 48H      -0.873800
     26 O11          8.4360    -0.7970     1.9690 os         1 48H      -0.495200
     27 C14          6.7680     0.0510     0.4410 c3         1 48H       0.135100
     28 C15          6.2870     1.3180    -0.2930 c3         1 48H       0.124100
     29 O12          6.4180     1.1560    -1.7070 oh         1 48H      -0.570800
     30 C16          4.7960     1.4440     0.1040 c3         1 48H       0.122100
     31 O13          4.0010     1.8340    -1.0160 oh         1 48H      -0.554800
     32 C17          4.4550    -0.0010     0.5490 c3         1 48H       0.132800
     33 O14          5.6590    -0.4430     1.2110 os         1 48H      -0.357600
     34 N2           3.3240    -0.0010     1.4800 na         1 48H       0.231000
     35 N3           1.3160     0.0000     0.0000 nb         1 48H      -0.649000
     36 N4          -0.7090    -0.0000     1.1140 nb         1 48H      -0.770000
     37 N5          -0.8690    -0.0070     3.4680 nv         1 48H      -0.506500
     38 N6           2.2030    -0.0010     3.3530 nd         1 48H      -0.533100
     39 H1          -0.5210     0.0050    -0.9500 h5         1 48H      -0.018900
     40 H2           4.3200    -0.0020     3.4130 h5         1 48H       0.072800
     41 H5          12.7290    -5.5190     4.6930 h1         1 48H       0.004700
     42 H6          12.0480    -4.9040     6.2050 h1         1 48H       0.004700
     43 H7          10.1850    -6.5640     5.9850 h1         1 48H       0.024700
     44 H8          10.0520    -7.7020     4.2050 ho         1 48H       0.355000
     45 H9          13.4940    -8.8680     8.1180 hc         1 48H       0.006033
     46 H10         13.5700    -7.5540     9.3000 hc         1 48H       0.006033
     47 H11         12.2890    -8.7690     9.4100 hc         1 48H       0.006033
     48 H12         10.1620    -6.3380    10.1280 h1         1 48H       0.006700
     49 H13         11.7520    -7.0950    10.2930 h1         1 48H       0.006700
     50 H15          8.7210     0.8740     0.7980 h1         1 48H      -0.018800
     51 H16          7.5900     1.0730     2.1430 h1         1 48H      -0.018800
     52 H17          7.0740    -0.6970    -0.2810 h1         1 48H       0.043700
     53 H18          6.8420     2.1830     0.0480 h1         1 48H       0.019700
     54 H19          7.0530     1.7690    -2.0360 ho         1 48H       0.381000
     55 H20          4.6780     2.1360     0.9290 h1         1 48H       0.018700
     56 H21          3.8490     2.7640    -0.9860 ho         1 48H       0.374000
     57 H22          4.2470    -0.6240    -0.3130 h2         1 48H       0.058700
     58 H23         -0.4120    -0.0090     4.3590 hn         1 48H       0.270300
     59 H24         -1.8680    -0.0070     3.4180 hn         1 48H       0.270300
     60 C13          7.9330     0.3970     1.3690 c3         1 48H       0.306400
@<TRIPOS>BOND
     1     1    35 ar  
     2     1    36 ar  
     3     1    39 1   
     4     2     3 ar  
     5     2    34 1   
     6     2    35 ar  
     7     3     4 ar  
     8     3    38 1   
     9     4    36 ar  
    10     4    37 1   
    11     5    34 1   
    12     5    38 2   
    13     5    40 1   
    14     6     7 1   
    15     7     8 1   
    16     7     9 1   
    17     7    26 1   
    18     9    10 1   
    19    10    11 1   
    20    10    12 1   
    21    10    13 1   
    22    13    14 1   
    23    14    15 1   
    24    14    41 1   
    25    14    42 1   
    26    15    16 1   
    27    15    17 1   
    28    15    43 1   
    29    16    44 1   
    30    17    18 2   
    31    17    19 1   
    32    19    20 1   
    33    19    21 2   
    34    20    45 1   
    35    20    46 1   
    36    20    47 1   
    37    21    22 1   
    38    22    23 1   
    39    22    48 1   
    40    22    49 1   
    41    23    24 1   
    42    23    25 1   
    43    26    60 1   
    44    27    28 1   
    45    27    33 1   
    46    27    52 1   
    47    27    60 1   
    48    28    29 1   
    49    28    30 1   
    50    28    53 1   
    51    29    54 1   
    52    30    31 1   
    53    30    32 1   
    54    30    55 1   
    55    31    56 1   
    56    32    33 1   
    57    32    34 1   
    58    32    57 1   
    59    37    58 1   
    60    37    59 1   
    61    50    60 1   
    62    51    60 1   
@<TRIPOS>SUBSTRUCTURE
     1 48H         1 TEMP              0 ****  ****    0 ROOT
