@<TRIPOS>MOLECULE
molecule
   60    62     1     0     0
SMALL
bcc


@<TRIPOS>ATOM
      1 C1           0.0000     0.0000     0.0000 ca         1 48H       0.708900
      2 C2           1.9940     0.0000     1.1430 ca         1 48H       0.466800
      3 C3           1.2860    -0.0000     2.3560 ca         1 48H      -0.202200
      4 C4          -0.1180    -0.0060     2.3060 ca         1 48H       0.772200
      5 C5           3.4000    -0.0010     2.8410 cc         1 48H       0.469700
      6 O1           9.2650    -0.0320     4.3590 o          1 48H      -0.834500
      7 P1           9.6680    -0.8060     3.0070 p5         1 48H       1.429800
      8 O2          10.8380    -0.1430     2.3880 o          1 48H      -0.834500
      9 O3          10.0470    -2.3270     3.3760 os         1 48H      -0.718800
     10 P2          11.3180    -3.0230     4.0770 p5         1 48H       1.439800
     11 O4          12.5470    -3.0650     3.0390 o          1 48H      -0.833500
     12 O5          11.7080    -2.2460     5.2740 o          1 48H      -0.833500
     13 O6          10.9330    -4.5250     4.5140 os         1 48H      -0.612200
     14 C6          11.8160    -5.3700     5.2550 c3         1 48H       0.239400
     15 C7          11.1420    -6.7200     5.5010 c3         1 48H       0.051100
     16 O7          10.9400    -7.3870     4.2530 oh         1 48H      -0.584800
     17 C8          12.0200    -7.5670     6.3860 c          1 48H       0.490800
     18 O8          12.7180    -8.4250     5.9000 o          1 48H      -0.563100
     19 C9          12.0280    -7.3480     7.8470 ce         1 48H       0.267300
     20 C10         12.9070    -8.1940     8.7310 c3         1 48H      -0.163400
     21 N1          11.2830    -6.4300     8.3650 n2         1 48H      -0.471900
     22 C11         11.1990    -6.2910     9.8200 c3         1 48H      -0.020200
     23 C12         11.7870    -4.9670    10.2330 c          1 48H       0.887600
     24 O9          11.8190    -4.6210    11.5300 o          1 48H      -0.820300
     25 O10         12.2310    -4.2160     9.3980 o          1 48H      -0.820300
     26 O11          8.4360    -0.7970     1.9690 os         1 48H      -0.591200
     27 C14          6.7680     0.0510     0.4410 c3         1 48H       0.119100
     28 C15          6.2870     1.3180    -0.2930 c3         1 48H       0.083100
     29 O12          6.4180     1.1560    -1.7070 oh         1 48H      -0.585800
     30 C16          4.7960     1.4440     0.1040 c3         1 48H       0.080100
     31 O13          4.0010     1.8340    -1.0160 oh         1 48H      -0.574800
     32 C17          4.4550    -0.0010     0.5490 c3         1 48H       0.252800
     33 O14          5.6590    -0.4430     1.2110 os         1 48H      -0.375600
     34 N2           3.3240    -0.0010     1.4800 na         1 48H      -0.239000
     35 N3           1.3160     0.0000     0.0000 nb         1 48H      -0.768000
     36 N4          -0.7090    -0.0000     1.1140 nb         1 48H      -0.857000
     37 N5          -0.8690    -0.0070     3.4680 nv         1 48H      -0.997500
     38 N6           2.2030    -0.0010     3.3530 nd         1 48H      -0.616100
     39 H1          -0.5210     0.0050    -0.9500 h5         1 48H       0.044100
     40 H2           4.3200    -0.0010     3.4130 h5         1 48H       0.121800
     41 H5          12.0480    -4.9040     6.2050 h1         1 48H       0.056700
     42 H6          12.7290    -5.5190     4.6930 h1         1 48H       0.056700
     43 H7          10.1850    -6.5640     5.9850 h1         1 48H       0.066700
     44 H8          10.0880    -7.7910     4.2470 ho         1 48H       0.371000
     45 H9          13.5490    -7.5520     9.3230 hc         1 48H       0.037700
     46 H10         13.5160    -8.8460     8.1170 hc         1 48H       0.037700
     47 H11         12.2880    -8.7920     9.3890 hc         1 48H       0.037700
     48 H12         11.7520    -7.0950    10.2920 h1         1 48H       0.032200
     49 H13         10.1620    -6.3380    10.1280 h1         1 48H       0.032200
     50 H15          8.7210     0.8740     0.7980 h1         1 48H       0.033200
     51 H16          7.5900     1.0730     2.1430 h1         1 48H       0.033200
     52 H17          7.0740    -0.6970    -0.2810 h1         1 48H       0.085700
     53 H18          6.8420     2.1830     0.0480 h1         1 48H       0.054700
     54 H19          6.9450     1.8550    -2.0560 ho         1 48H       0.395000
     55 H20          4.6780     2.1360     0.9290 h1         1 48H       0.055700
     56 H21          3.8570     2.7660    -0.9910 ho         1 48H       0.390000
     57 H22          4.2470    -0.6240    -0.3130 h2         1 48H       0.100700
     58 H23         -1.8680    -0.0040     3.4180 hn         1 48H       0.442300
     59 H24         -0.4120    -0.0090     4.3590 hn         1 48H       0.442300
     60 C13          7.9330     0.3970     1.3690 c3         1 48H       0.235400
@<TRIPOS>BOND
     1    31    30 1   
     2    29    28 1   
     3    30    28 1   
     4    30    32 1   
     5    28    27 1   
     6    32    34 1   
     7    32    33 1   
     8    35     1 ar  
     9    35     2 ar  
    10     1    36 ar  
    11    27    33 1   
    12    27    60 1   
    13     2    34 1   
    14     2     3 ar  
    15    34     5 1   
    16     8     7 1   
    17    36     4 ar  
    18    26    60 1   
    19    26     7 1   
    20    16    15 1   
    21     6     7 1   
    22     7     9 1   
    23     5    38 2   
    24     3     4 ar  
    25     3    38 1   
    26     4    37 1   
    27    18    17 2   
    28    15    17 1   
    29    15    14 1   
    30    17    19 1   
    31     9    10 1   
    32    13    14 1   
    33    13    10 1   
    34    12    10 1   
    35    19    21 2   
    36    19    20 1   
    37    10    11 1   
    38    25    23 1   
    39    21    22 1   
    40    23    22 1   
    41    23    24 1   
    42     1    39 1   
    43     5    40 1   
    44    14    41 1   
    45    14    42 1   
    46    15    43 1   
    47    16    44 1   
    48    20    45 1   
    49    20    46 1   
    50    20    47 1   
    51    22    48 1   
    52    22    49 1   
    53    60    50 1   
    54    60    51 1   
    55    27    52 1   
    56    28    53 1   
    57    29    54 1   
    58    30    55 1   
    59    31    56 1   
    60    32    57 1   
    61    37    58 1   
    62    37    59 1   
@<TRIPOS>SUBSTRUCTURE
     1 48H         1 TEMP              0 ****  ****    0 ROOT
