@<TRIPOS>MOLECULE
48I
   32    33     1     0     0
SMALL
bcc


@<TRIPOS>ATOM
      1 Cl           0.0000     0.0000     0.0000 cl         1 48I       0.034600
      2 C10          1.7360     0.0000     0.0000 ca         1 48I       0.021400
      3 C8           2.4290     0.0000     1.1980 ca         1 48I      -0.462200
      4 N16          1.6900    -0.0010     2.4800 no         1 48I       1.050200
      5 O18          2.3000    -0.0010     3.5350 o          1 48I      -0.452500
      6 O17          0.4720    -0.0020     2.4810 o          1 48I      -0.452500
      7 C7           3.8110    -0.0000     1.1960 ca         1 48I       0.022000
      8 C19          2.4280    -0.0060    -1.1990 ca         1 48I      -0.136000
      9 C15          3.8100    -0.0110    -1.1980 ca         1 48I      -0.013000
     10 C1           4.5010     0.0000    -0.0010 ca         1 48I      -0.133300
     11 C3           6.0080    -0.0060    -0.0020 c3         1 48I       0.099300
     12 N5           6.5020     1.3730    -0.0190 n          1 48I      -0.091400
     13 C20          6.7290     2.0180     1.1400 c          1 48I       0.593500
     14 O4           6.5200     1.4480     2.1940 o          1 48I      -0.703500
     15 N2           7.1830     3.2850     1.1490 n          1 48I       0.135000
     16 C13          7.4210     3.9610     2.4270 c3         1 48I      -0.110000
     17 C11          8.8400     3.7130     2.8690 c          1 48I       0.970600
     18 O14          9.2860     4.2390     4.0210 o          1 48I      -0.878300
     19 O9           9.5770     3.0410     2.1870 o          1 48I      -0.878300
     20 C22          7.4250     3.9470    -0.0230 cc         1 48I      -0.037400
     21 C23          7.2060     3.3230    -1.2010 cd         1 48I      -0.377200
     22 C6           6.7340     1.9890    -1.1960 c          1 48I       0.646700
     23 O21          6.5290     1.4050    -2.2450 o          1 48I      -0.726500
     24 H1           4.3530     0.0040     2.1330 ha         1 48I       0.163000
     25 H2           1.8860    -0.0150    -2.1370 ha         1 48I       0.119000
     26 H3           4.3510    -0.0130    -2.1370 ha         1 48I       0.136000
     27 H4           6.3670    -0.5300    -0.8800 h1         1 48I       0.054200
     28 H5           6.3670    -0.5070     0.8890 h1         1 48I       0.054200
     29 H6           6.7380     3.5740     3.1730 h1         1 48I       0.041700
     30 H7           7.2610     5.0250     2.3080 h1         1 48I       0.041700
     31 H9           7.7890     4.9670    -0.0070 h4         1 48I       0.129000
     32 H10          7.3960     3.8350    -2.1370 ha         1 48I       0.140000
@<TRIPOS>BOND
     1     1     2 1   
     2     2     3 ar  
     3     2     8 ar  
     4     3     4 1   
     5     3     7 ar  
     6     4     5 1   
     7     4     6 1   
     8     7    10 ar  
     9     7    24 1   
    10     8     9 ar  
    11     8    25 1   
    12     9    10 ar  
    13     9    26 1   
    14    10    11 1   
    15    11    12 1   
    16    11    27 1   
    17    11    28 1   
    18    12    13 1   
    19    12    22 1   
    20    13    14 2   
    21    13    15 1   
    22    15    16 1   
    23    15    20 1   
    24    16    17 1   
    25    16    29 1   
    26    16    30 1   
    27    17    18 1   
    28    17    19 1   
    29    20    21 2   
    30    20    31 1   
    31    21    22 1   
    32    21    32 1   
    33    22    23 2   
@<TRIPOS>SUBSTRUCTURE
     1 48I         1 TEMP              0 ****  ****    0 ROOT
