@<TRIPOS>MOLECULE
molecule
   32    33     1     0     0
SMALL
bcc


@<TRIPOS>ATOM
      1 Cl           0.0000     0.0000     0.0000 cl         1 48I      -0.064400
      2 C10          1.7360     0.0000     0.0000 ca         1 48I       0.071400
      3 C8           2.4290     0.0000     1.1980 ca         1 48I      -0.166200
      4 N16          1.6900    -0.0010     2.4800 no         1 48I       0.295200
      5 O18          2.3000    -0.0010     3.5350 o          1 48I      -0.203500
      6 O17          0.4720    -0.0020     2.4810 o          1 48I      -0.203500
      7 C7           3.8110    -0.0000     1.1960 ca         1 48I      -0.037000
      8 C19          2.4280    -0.0060    -1.1990 ca         1 48I      -0.147000
      9 C15          3.8100    -0.0110    -1.1980 ca         1 48I      -0.059000
     10 C1           4.5010     0.0000    -0.0010 ca         1 48I      -0.112300
     11 C3           6.0080    -0.0060    -0.0020 c3         1 48I       0.159300
     12 N5           6.5020     1.3730    -0.0190 n          1 48I      -0.473400
     13 C20          6.7290     2.0180     1.1400 c          1 48I       0.812500
     14 O4           6.5200     1.4480     2.1940 o          1 48I      -0.654500
     15 N2           7.1830     3.2850     1.1490 n          1 48I      -0.309000
     16 C13          7.4210     3.9610     2.4270 c3         1 48I      -0.021000
     17 C11          8.8400     3.7130     2.8690 c          1 48I       0.878600
     18 O14          9.2860     4.2390     4.0210 o          1 48I      -0.825800
     19 O9           9.5770     3.0410     2.1870 o          1 48I      -0.825800
     20 C22          7.4250     3.9470    -0.0230 cc         1 48I       0.093600
     21 C23          7.2060     3.3230    -1.2010 cd         1 48I      -0.391200
     22 C6           6.7340     1.9890    -1.1960 c          1 48I       0.722700
     23 O21          6.5290     1.4050    -2.2450 o          1 48I      -0.683500
     24 H1           4.3530     0.0040     2.1330 ha         1 48I       0.196000
     25 H2           1.8860    -0.0150    -2.1370 ha         1 48I       0.152000
     26 H3           4.3510    -0.0130    -2.1370 ha         1 48I       0.170000
     27 H4           6.3670    -0.5300    -0.8800 h1         1 48I       0.085700
     28 H5           6.3670    -0.5070     0.8890 h1         1 48I       0.085700
     29 H6           6.7380     3.5740     3.1730 h1         1 48I       0.065700
     30 H7           7.2610     5.0250     2.3080 h1         1 48I       0.065700
     31 H9           7.7890     4.9670    -0.0070 h4         1 48I       0.163000
     32 H10          7.3960     3.8350    -2.1370 ha         1 48I       0.162000
@<TRIPOS>BOND
     1    21    20 2   
     2    21    22 1   
     3    23    22 2   
     4    20    15 1   
     5    22    12 1   
     6    15    16 1   
     7    15    13 1   
     8    12    13 1   
     9    12    11 1   
    10    16    17 1   
    11    13    14 2   
    12    11    10 1   
    13     9    10 ar  
    14     9     8 ar  
    15    17    19 1   
    16    17    18 1   
    17    10     7 ar  
    18     8     2 ar  
    19     7     3 ar  
    20     2     3 ar  
    21     2     1 1   
    22     3     4 1   
    23     4     5 1   
    24     4     6 1   
    25     7    24 1   
    26     8    25 1   
    27     9    26 1   
    28    11    27 1   
    29    11    28 1   
    30    16    29 1   
    31    16    30 1   
    32    20    31 1   
    33    21    32 1   
@<TRIPOS>SUBSTRUCTURE
     1 48I         1 TEMP              0 ****  ****    0 ROOT
