@<TRIPOS>MOLECULE
molecule
   49    51     1     0     0
SMALL
bcc


@<TRIPOS>ATOM
      1 S            0.0000     0.0000     0.0000 sy         1 48K       1.428200
      2 C1           1.8930    -1.4240     4.8320 c3         1 48K       0.149100
      3 O1           1.4210     0.0000     0.0000 o          1 48K      -0.637800
      4 C2          -0.0410    -1.2160     6.2750 c3         1 48K       0.149100
      5 N2          -0.4680     0.0000     1.5890 n7         1 48K      -0.918100
      6 O2          -0.7780     0.9980    -0.6470 o          1 48K      -0.637800
      7 C3          -0.1750    -0.5120     3.9630 c3         1 48K       0.154800
      8 N3          -1.6750    -5.1900    -2.3200 nu         1 48K      -0.624400
      9 O3          -1.3930    -7.9210    -3.0320 o          1 48K      -0.660500
     10 C4           0.1320    -0.9510     2.5290 c3         1 48K       0.231800
     11 N4          -3.2660    -8.6890    -4.0900 ns         1 48K      -0.446100
     12 C5          -0.4970    -1.5440    -0.6890 ca         1 48K      -0.350500
     13 C6           0.3590    -2.6270    -0.6440 ca         1 48K       0.010500
     14 C7          -0.0270    -3.8390    -1.1840 ca         1 48K      -0.204000
     15 C8          -1.2790    -3.9660    -1.7730 ca         1 48K       0.208600
     16 C9          -2.9020    -5.3140    -2.8960 c2         1 48K       0.186000
     17 C10         -3.2880    -6.5090    -3.4320 cc         1 48K      -0.282400
     18 C11         -2.5160    -7.7580    -3.4750 c          1 48K       0.728700
     19 C12         -4.4990    -8.1740    -4.4730 ca         1 48K       0.044600
     20 C13         -5.5820    -8.7540    -5.1260 ca         1 48K      -0.150000
     21 C14         -6.7110    -8.0060    -5.3910 ca         1 48K      -0.104000
     22 C15         -6.7800    -6.6750    -5.0140 ca         1 48K      -0.148000
     23 C16         -5.7150    -6.0830    -4.3670 ca         1 48K      -0.092000
     24 C17         -4.5740    -6.8280    -4.0930 ca         1 48K      -0.076800
     25 C18         -2.1380    -2.8750    -1.8160 ca         1 48K      -0.204000
     26 C19         -1.7470    -1.6690    -1.2700 ca         1 48K       0.010500
     27 HN4         -2.9740    -9.6320    -4.2500 hn         1 48K       0.339500
     28 H1           2.3100    -1.7480     5.7780 h1         1 48K       0.035033
     29 H1A          2.2380    -2.0800     4.0420 h1         1 48K       0.035033
     30 H1B          2.2120    -0.4100     4.6250 h1         1 48K       0.035033
     31 H2           0.3850    -1.9550     6.9420 h1         1 48K       0.035033
     32 H2A         -1.1210    -1.2990     6.2870 h1         1 48K       0.035033
     33 H2B          0.2480    -0.2240     6.6020 h1         1 48K       0.035033
     34 H3          -1.2480    -0.4860     4.1110 h1         1 48K       0.039700
     35 H3A          0.2380     0.4740     4.1350 h1         1 48K       0.039700
     36 H4          -0.2810    -1.9380     2.3570 h1         1 48K       0.055200
     37 H4A          1.2040    -0.9780     2.3810 h1         1 48K       0.055200
     38 HN2         -1.1630     0.6460     1.9050 hn         1 48K       0.453800
     39 H6           1.3350    -2.5260    -0.1850 ha         1 48K       0.154500
     40 H7           0.6450    -4.6870    -1.1480 ha         1 48K       0.142500
     41 HN3         -1.0550    -5.9760    -2.2890 hn         1 48K       0.489800
     42 H9          -3.5720    -4.4640    -2.9300 h4         1 48K       0.164000
     43 H13         -5.5400    -9.7940    -5.4250 ha         1 48K       0.132000
     44 H14         -7.5510    -8.4640    -5.8990 ha         1 48K       0.134000
     45 H15         -7.6710    -6.0980    -5.2280 ha         1 48K       0.133000
     46 H16         -5.7680    -5.0420    -4.0720 ha         1 48K       0.127000
     47 H18         -3.1170    -2.9730    -2.2700 ha         1 48K       0.142500
     48 H19         -2.4160    -0.8180    -1.3030 ha         1 48K       0.154500
     49 N1           0.4260    -1.4650     4.9050 n3         1 48K      -0.732600
@<TRIPOS>BOND
     1     1     5 1   
     2     1     3 2   
     3     2    49 1   
     4    49     4 1   
     5    49     7 1   
     6     4    32 1   
     7     4    31 1   
     8     5    38 1   
     9     6     1 2   
    10     7    10 1   
    11     8    16 1   
    12     9    18 2   
    13    10     5 1   
    14    10    37 1   
    15    10    36 1   
    16    11    19 1   
    17    12     1 1   
    18    12    26 ar  
    19    13    12 ar  
    20    13    14 ar  
    21    14    15 ar  
    22    15     8 1   
    23    15    25 ar  
    24    16    17 2   
    25    16    42 1   
    26    17    24 1   
    27    18    11 1   
    28    18    17 1   
    29    19    24 ar  
    30    19    20 ar  
    31    20    21 ar  
    32    21    22 ar  
    33    21    44 1   
    34    22    45 1   
    35    23    22 ar  
    36    23    46 1   
    37    24    23 ar  
    38    25    26 ar  
    39    25    47 1   
    40    26    48 1   
    41    27    11 1   
    42    28     2 1   
    43    29     2 1   
    44    30     2 1   
    45    33     4 1   
    46    34     7 1   
    47    35     7 1   
    48    39    13 1   
    49    40    14 1   
    50    41     8 1   
    51    43    20 1   
@<TRIPOS>SUBSTRUCTURE
     1 48K         1 TEMP              0 ****  ****    0 ROOT
