@<TRIPOS>MOLECULE
48L
   70    74     1     0     0
SMALL
bcc


@<TRIPOS>ATOM
      1 N            0.0000     0.0000     0.0000 n2         1 48L      -0.605900
      2 CG1          0.8230    -1.2390     3.1030 ca         1 48L      -0.140300
      3 CG2         -1.3260    -1.2370     1.6400 ca         1 48L      -0.109300
      4 CG3          2.0950    -0.0010    -1.2400 ca         1 48L      -0.219900
      5 CD1          0.5380    -1.1610     4.4550 ca         1 48L      -0.084000
      6 CD2          1.1580    -2.4550     2.5370 ca         1 48L      -0.084000
      7 CD3         -1.1260    -2.3710     0.8780 ca         1 48L      -0.041000
      8 CD4         -2.2740    -1.2400     2.6500 ca         1 48L       0.118900
      9 CD5          1.9350     1.0190    -2.1790 ca         1 48L       0.029000
     10 CD6          3.0270    -1.0220    -1.4730 ca         1 48L       0.264100
     11 CE1          0.5870    -2.2990     5.2380 ca         1 48L      -0.099500
     12 CE2          1.2050    -3.5930     3.3190 ca         1 48L      -0.099500
     13 CE3         -3.0220    -2.3790     2.8930 ca         1 48L      -0.127000
     14 CE4         -1.8740    -3.5100     1.1220 ca         1 48L       0.018100
     15 CE5          2.6900     1.0190    -3.3310 ca         1 48L      -0.268000
     16 CE6          3.7800    -1.0120    -2.6350 ca         1 48L      -0.269000
     17 CZ1          0.9200    -3.5150     4.6710 ca         1 48L      -0.029600
     18 CZ2         -2.8210    -3.5140     2.1290 ca         1 48L      -0.055000
     19 CZ3          3.6130     0.0050    -3.5630 ca         1 48L       0.213100
     20 Cl           0.9820    -4.9450     5.6540 cl         1 48L      -0.017400
     21 CM1          4.1310     1.0880    -5.6130 c3         1 48L       0.244700
     22 CM2          4.6850    -3.5750     0.5190 c3         1 48L      -0.021100
     23 CM3          3.7480    -4.0490    -1.7480 c3         1 48L      -0.021100
     24 C1           3.1090     1.0310     4.9620 c          1 48L       0.605500
     25 N1           4.3280     1.5710     4.9490 ns         1 48L      -0.171900
     26 O1           2.3410     1.3560     5.8430 o          1 48L      -0.695500
     27 C2           5.3200     1.3470     3.9070 c3         1 48L       0.024000
     28 N2           3.5940     0.0280     2.8140 n          1 48L      -0.162800
     29 C3           5.0270     0.0510     3.1480 c3         1 48L       0.050000
     30 N3           1.8540     0.0000     1.2580 n          1 48L      -0.053300
     31 O3           4.3530     0.0110    -4.7010 os         1 48L      -0.308900
     32 C4           2.6380     0.0440     3.9290 c3         1 48L      -0.168000
     33 C5           3.1730    -0.0010     1.5340 c          1 48L       0.628100
     34 O5           3.9840    -0.0280     0.6280 o          1 48L      -0.671100
     35 C6           1.2920     0.0000     0.0000 ce         1 48L       0.436500
     36 O6           3.1890    -2.0170    -0.5650 os         1 48L      -0.301900
     37 C7          -0.5080     0.0010     1.3790 c3         1 48L       0.196800
     38 C8           0.7650     0.0000     2.2480 c3         1 48L       0.022000
     39 C9           4.2440    -2.9500    -0.8060 c3         1 48L       0.166100
     40 Br          -1.6000    -5.0620     0.0770 br         1 48L      -0.122100
     41 F           -2.4700    -0.1310     3.3970 f          1 48L      -0.127900
     42 HD1          0.2770    -0.2090     4.8990 ha         1 48L       0.136500
     43 HD2          1.3810    -2.5160     1.4780 ha         1 48L       0.136500
     44 HD3         -0.3840    -2.3700     0.0880 ha         1 48L       0.141000
     45 HD5          1.2170     1.8100    -2.0020 ha         1 48L       0.108000
     46 HE1          0.3640    -2.2370     6.2960 ha         1 48L       0.123500
     47 HE2          1.4670    -4.5460     2.8740 ha         1 48L       0.123500
     48 HE3         -3.7640    -2.3820     3.6820 ha         1 48L       0.124000
     49 HE5          2.5640     1.8110    -4.0590 ha         1 48L       0.124000
     50 HE6          4.5010    -1.8000    -2.8190 ha         1 48L       0.140000
     51 HZ2         -3.4060    -4.4060     2.3190 ha         1 48L       0.120000
     52 HM11         4.3460     2.0290    -5.1210 h1         1 48L      -0.001633
     53 HM12         4.7800     0.9740    -6.4720 h1         1 48L      -0.001633
     54 HM13         3.0970     1.0790    -5.9380 h1         1 48L      -0.001633
     55 HM21         5.1340    -2.8140     1.1460 hc         1 48L       0.013367
     56 HM22         5.4110    -4.3560     0.3250 hc         1 48L       0.013367
     57 HM23         3.8250    -3.9980     1.0230 hc         1 48L       0.013367
     58 HM31         4.5300    -4.2990    -2.4540 hc         1 48L       0.013367
     59 HM32         3.4870    -4.9290    -1.1710 hc         1 48L       0.013367
     60 HM33         2.8750    -3.6980    -2.2850 hc         1 48L       0.013367
     61 H21          5.2990     2.1780     3.2120 h1         1 48L       0.024200
     62 H22          6.3020     1.2790     4.3600 h1         1 48L       0.024200
     63 H31          5.6140     0.0210     2.2380 h1         1 48L       0.044700
     64 H32          5.2690    -0.8000     3.7740 h1         1 48L       0.044700
     65 H41          2.5810    -0.9430     4.3710 h1         1 48L       0.110200
     66 H42          1.6620     0.3410     3.5640 h1         1 48L       0.110200
     67 H7          -1.0910     0.8940     1.5650 h1         1 48L       0.059700
     68 H8           0.8070     0.8940     2.8580 h1         1 48L       0.071700
     69 H9           5.0830    -2.4370    -1.2600 h1         1 48L       0.030700
     70 HN1          4.5790     2.1720     5.7090 hn         1 48L       0.184500
@<TRIPOS>BOND
     1     1    35 2   
     2     1    37 1   
     3     2     5 ar  
     4     2     6 ar  
     5     2    38 1   
     6     3     7 ar  
     7     3     8 ar  
     8     3    37 1   
     9     4     9 ar  
    10     4    10 ar  
    11     4    35 1   
    12     5    11 ar  
    13     5    42 1   
    14     6    12 ar  
    15     6    43 1   
    16     7    14 ar  
    17     7    44 1   
    18     8    13 ar  
    19     8    41 1   
    20     9    15 ar  
    21     9    45 1   
    22    10    16 ar  
    23    10    36 1   
    24    11    17 ar  
    25    11    46 1   
    26    12    17 ar  
    27    12    47 1   
    28    13    18 ar  
    29    13    48 1   
    30    14    18 ar  
    31    14    40 1   
    32    15    19 ar  
    33    15    49 1   
    34    16    19 ar  
    35    16    50 1   
    36    17    20 1   
    37    18    51 1   
    38    19    31 1   
    39    21    31 1   
    40    21    52 1   
    41    21    53 1   
    42    21    54 1   
    43    22    39 1   
    44    22    55 1   
    45    22    56 1   
    46    22    57 1   
    47    23    39 1   
    48    23    58 1   
    49    23    59 1   
    50    23    60 1   
    51    24    25 1   
    52    24    26 2   
    53    24    32 1   
    54    25    27 1   
    55    25    70 1   
    56    27    29 1   
    57    27    61 1   
    58    27    62 1   
    59    28    29 1   
    60    28    32 1   
    61    28    33 1   
    62    29    63 1   
    63    29    64 1   
    64    30    33 1   
    65    30    35 1   
    66    30    38 1   
    67    32    65 1   
    68    32    66 1   
    69    33    34 2   
    70    36    39 1   
    71    37    38 1   
    72    37    67 1   
    73    38    68 1   
    74    39    69 1   
@<TRIPOS>SUBSTRUCTURE
     1 48L         1 TEMP              0 ****  ****    0 ROOT
