@<TRIPOS>MOLECULE
48M
   67    71     1     0     0
SMALL
bcc


@<TRIPOS>ATOM
      1 N            0.0000     0.0000     0.0000 n2         1 48M      -0.594900
      2 CG1          0.8240    -1.2420     3.1030 ca         1 48M      -0.097300
      3 CG2         -1.3260    -1.2390     1.6390 ca         1 48M      -0.075300
      4 CG3          2.0950     0.0010    -1.2400 ca         1 48M      -0.145900
      5 CD1          0.5400    -1.1640     4.4540 ca         1 48M      -0.105500
      6 CD2          1.1580    -2.4560     2.5350 ca         1 48M      -0.105500
      7 CD3         -2.4700    -1.1620     2.4110 ca         1 48M      -0.089000
      8 CD4         -0.9340    -2.4520     1.1030 ca         1 48M      -0.090000
      9 CD5          1.9320     1.0220    -2.1780 ca         1 48M      -0.022000
     10 CD6          3.0260    -1.0200    -1.4740 ca         1 48M       0.222100
     11 CE1          0.5880    -2.3020     5.2370 ca         1 48M      -0.091000
     12 CE2          1.2070    -3.5950     3.3160 ca         1 48M      -0.091000
     13 CE3         -3.2240    -2.2970     2.6460 ca         1 48M      -0.091000
     14 CE4         -1.6880    -3.5870     1.3380 ca         1 48M      -0.033600
     15 CE5          2.6830     1.0270    -3.3310 ca         1 48M      -0.128000
     16 CE6          3.7800    -1.0130    -2.6340 ca         1 48M      -0.193000
     17 CZ1          0.9220    -3.5180     4.6680 ca         1 48M      -0.033600
     18 CZ2         -2.8330    -3.5090     2.1100 ca         1 48M      -0.095000
     19 CZ3          3.6130     0.0100    -3.5670 ca         1 48M       0.082000
     20 Cl2          0.9840    -4.9490     5.6510 cl         1 48M      -0.018400
     21 Cl1         -1.1980    -5.1100     0.6630 cl         1 48M      -0.030400
     22 CM1          4.3940     0.0190    -4.7670 cg         1 48M       0.232800
     23 CM2          4.6800    -3.5720     0.5240 c3         1 48M      -0.029100
     24 CM3          3.7450    -4.0470    -1.7440 c3         1 48M      -0.029100
     25 NM1          5.0290     0.0190    -5.7090 n1         1 48M      -0.385800
     26 C1           3.1090     1.0290     4.9620 c          1 48M       0.633500
     27 N1           4.3290     1.5680     4.9500 ns         1 48M      -0.269900
     28 O1           2.1590     1.5170     5.1580 o          1 48M      -0.601500
     29 C2           5.3200     1.3460     3.9070 c3         1 48M       0.004000
     30 N2           3.5940     0.0280     2.8130 n          1 48M      -0.064800
     31 C3           5.0280     0.0510     3.1470 c3         1 48M       0.063000
     32 N3           1.8530     0.0000     1.2570 n          1 48M      -0.040300
     33 C4           2.6380     0.0420     3.9290 c3         1 48M      -0.304000
     34 C5           3.1730    -0.0000     1.5330 c          1 48M       0.610100
     35 O5           3.9830    -0.0260     0.6270 o          1 48M      -0.684100
     36 C6           1.2910     0.0000     0.0000 ce         1 48M       0.409500
     37 O6           3.1870    -2.0140    -0.5630 os         1 48M      -0.279900
     38 C7          -0.5080    -0.0010     1.3790 c3         1 48M       0.192800
     39 C8           0.7650    -0.0010     2.2490 c3         1 48M       0.025000
     40 C9           4.2420    -2.9480    -0.8020 c3         1 48M       0.164100
     41 HD1          0.2780    -0.2110     4.8990 ha         1 48M       0.138500
     42 HD2          1.3800    -2.5150     1.4770 ha         1 48M       0.138500
     43 HD3         -2.7770    -0.2110     2.8310 ha         1 48M       0.107000
     44 HD4         -0.0370    -2.5130     0.4980 ha         1 48M       0.134000
     45 HD5          1.2120     1.8120    -1.9980 ha         1 48M       0.116000
     46 HE1          0.3650    -2.2420     6.2950 ha         1 48M       0.120500
     47 HE2          1.4680    -4.5470     2.8700 ha         1 48M       0.120500
     48 HE3         -4.1210    -2.2350     3.2510 ha         1 48M       0.107000
     49 HE5          2.5540     1.8210    -4.0570 ha         1 48M       0.116000
     50 HE6          4.5010    -1.8010    -2.8170 ha         1 48M       0.135000
     51 HZ2         -3.4240    -4.3980     2.2940 ha         1 48M       0.114000
     52 HM21         5.4050    -4.3540     0.3330 hc         1 48M       0.014033
     53 HM22         5.1280    -2.8100     1.1500 hc         1 48M       0.014033
     54 HM23         3.8190    -3.9930     1.0270 hc         1 48M       0.014033
     55 HM31         3.5040    -4.9330    -1.1690 hc         1 48M       0.014033
     56 HM32         4.5200    -4.2830    -2.4630 hc         1 48M       0.014033
     57 HM33         2.8600    -3.7030    -2.2660 hc         1 48M       0.014033
     58 H21          5.0790     1.7920     2.9500 h1         1 48M       0.047700
     59 H22          6.1130     1.7940     4.4940 h1         1 48M       0.047700
     60 H31          5.9890     0.1830     2.6640 h1         1 48M       0.040700
     61 H32          5.1740    -0.7530     3.8590 h1         1 48M       0.040700
     62 H41          2.9550    -0.9130     4.3320 h1         1 48M       0.117700
     63 H42          1.6260     0.0660     4.3130 h1         1 48M       0.117700
     64 H7          -1.0920     0.8920     1.5660 h1         1 48M       0.051700
     65 H8           0.8070     0.8930     2.8600 h1         1 48M       0.069700
     66 H9           5.1480    -2.6870    -1.3350 h1         1 48M       0.031700
     67 HN1          4.3620     1.8730     5.9020 hn         1 48M       0.185500
@<TRIPOS>BOND
     1     1    36 2   
     2     1    38 1   
     3     2     5 ar  
     4     2     6 ar  
     5     2    39 1   
     6     3     7 ar  
     7     3     8 ar  
     8     3    38 1   
     9     4     9 ar  
    10     4    10 ar  
    11     4    36 1   
    12     5    11 ar  
    13     5    41 1   
    14     6    12 ar  
    15     6    42 1   
    16     7    13 ar  
    17     7    43 1   
    18     8    14 ar  
    19     8    44 1   
    20     9    15 ar  
    21     9    45 1   
    22    10    16 ar  
    23    10    37 1   
    24    11    17 ar  
    25    11    46 1   
    26    12    17 ar  
    27    12    47 1   
    28    13    18 ar  
    29    13    48 1   
    30    14    18 ar  
    31    14    21 1   
    32    15    19 ar  
    33    15    49 1   
    34    16    19 ar  
    35    16    50 1   
    36    17    20 1   
    37    18    51 1   
    38    19    22 1   
    39    22    25 3   
    40    23    40 1   
    41    23    52 1   
    42    23    53 1   
    43    23    54 1   
    44    24    40 1   
    45    24    55 1   
    46    24    56 1   
    47    24    57 1   
    48    26    27 1   
    49    26    28 2   
    50    26    33 1   
    51    27    29 1   
    52    27    67 1   
    53    29    31 1   
    54    29    58 1   
    55    29    59 1   
    56    30    31 1   
    57    30    33 1   
    58    30    34 1   
    59    31    60 1   
    60    31    61 1   
    61    32    34 1   
    62    32    36 1   
    63    32    39 1   
    64    33    62 1   
    65    33    63 1   
    66    34    35 2   
    67    37    40 1   
    68    38    39 1   
    69    38    64 1   
    70    39    65 1   
    71    40    66 1   
@<TRIPOS>SUBSTRUCTURE
     1 48M         1 TEMP              0 ****  ****    0 ROOT
