@<TRIPOS>MOLECULE
48O
   41    42     1     0     0
SMALL
bcc


@<TRIPOS>ATOM
      1 N1           0.0000     0.0000     0.0000 n2         1 48O      -0.286200
      2 O1           7.4320    -4.4620    -3.9060 o          1 48O      -0.627500
      3 C1           6.9440    -3.6510    -4.6140 c          1 48O       0.689500
      4 N2           7.7850    -2.5760    -5.2130 ns         1 48O      -0.275500
      5 C2           7.1490    -1.4170    -5.8180 c          1 48O       0.662700
      6 O2           7.8090    -0.5040    -6.1970 o          1 48O      -0.598500
      7 C3           5.6570    -1.3150    -5.8320 cc         1 48O      -0.315200
      8 C4           4.8300    -2.4070    -5.2240 cd         1 48O      -0.061400
      9 N3           5.4640    -3.5270    -4.6400 n          1 48O      -0.116000
     10 C5           4.6450    -4.5530    -4.0670 c3         1 48O       0.216500
     11 O3           3.5150    -4.0530    -3.6480 os         1 48O      -0.350600
     12 C6           5.3790    -5.1970    -2.7250 c3         1 48O       0.073100
     13 O4           4.8160    -6.5320    -2.4300 oh         1 48O      -0.522800
     14 C7           5.2630    -4.1210    -1.8880 c3         1 48O       0.126100
     15 O5           5.3340    -4.8790    -0.5940 oh         1 48O      -0.572800
     16 C8           3.7440    -3.7050    -2.1990 c3         1 48O       0.155100
     17 C9           3.8150    -2.2210    -1.9840 c3         1 48O       0.008000
     18 N4           3.2920    -1.4430    -0.8340 ns         1 48O      -0.199900
     19 C10          1.9680    -1.2300    -0.7110 c          1 48O       0.558100
     20 O6           1.1790    -2.0300    -1.1710 o          1 48O      -0.548100
     21 C11          1.4650     0.0000     0.0000 c3         1 48O       0.117500
     22 C12          1.9760     0.0000     1.4420 c3         1 48O      -0.022100
     23 N5          -0.5620     0.8820     0.4110 n1         1 48O       0.818000
     24 H1           8.7560    -2.7400    -5.3950 hn         1 48O       0.211500
     25 H2           5.1750    -0.4500    -6.2720 ha         1 48O       0.146000
     26 H3           3.7490    -2.3640    -5.2900 h4         1 48O       0.142000
     27 H4           4.4560    -5.3340    -4.7940 h2         1 48O       0.056700
     28 H5           6.4500    -5.2600    -2.8770 h1         1 48O       0.099700
     29 H6           5.4160    -7.1980    -2.7210 ho         1 48O       0.400000
     30 H7           5.8920    -3.2400    -1.8510 h1         1 48O       0.061700
     31 H8           6.1470    -4.6820    -0.1590 ho         1 48O       0.390000
     32 H9           2.9530    -4.1230    -1.5880 h1         1 48O       0.080700
     33 H10          4.8520    -1.9080    -1.9660 h1         1 48O       0.033200
     34 H11          3.2990    -1.7140    -2.7900 h1         1 48O       0.033200
     35 H12          3.8060    -1.4130     0.0240 hn         1 48O       0.180500
     36 H14          1.8260     0.8850    -0.5110 h1         1 48O       0.062700
     37 H15          2.9710     0.4260     1.4730 hc         1 48O       0.035033
     38 H16          1.3110     0.5910     2.0610 hc         1 48O       0.035033
     39 H17          2.0060    -1.0170     1.8150 hc         1 48O       0.035033
     40 NAX         -1.1070     1.7740     0.8270 n2         1 48O      -0.421400
     41 H13         -0.5920     2.5510     1.1900 hn         1 48O       0.490400
@<TRIPOS>BOND
     1     1    21 1   
     2     1    23 2   
     3     2     3 2   
     4     3     4 1   
     5     3     9 1   
     6     4     5 1   
     7     4    24 1   
     8     5     6 2   
     9     5     7 1   
    10     7     8 2   
    11     7    25 1   
    12     8     9 1   
    13     8    26 1   
    14     9    10 1   
    15    10    11 1   
    16    10    12 1   
    17    10    27 1   
    18    11    16 1   
    19    12    13 1   
    20    12    14 1   
    21    12    28 1   
    22    13    29 1   
    23    14    15 1   
    24    14    16 1   
    25    14    30 1   
    26    15    31 1   
    27    16    17 1   
    28    16    32 1   
    29    17    18 1   
    30    17    33 1   
    31    17    34 1   
    32    18    19 1   
    33    18    35 1   
    34    19    20 2   
    35    19    21 1   
    36    21    22 1   
    37    21    36 1   
    38    22    37 1   
    39    22    38 1   
    40    22    39 1   
    41    23    40 2   
    42    40    41 1   
@<TRIPOS>SUBSTRUCTURE
     1 48O         1 TEMP              0 ****  ****    0 ROOT
