@<TRIPOS>MOLECULE
molecule
   41    42     1     0     0
SMALL
bcc


@<TRIPOS>ATOM
      1 N1           0.0000     0.0000     0.0000 n2         1 48O      -0.211200
      2 O1          -0.6480    -3.9240     0.2820 o          1 48O      -0.546500
      3 C1          -1.1780    -4.4690    -0.6270 c          1 48O       0.839500
      4 N2          -2.3790    -3.8640    -1.2630 ns         1 48O      -0.627500
      5 C2          -2.8260    -4.3460    -2.5580 c          1 48O       0.717700
      6 O2          -3.6960    -3.7830    -3.1360 o          1 48O      -0.560500
      7 C3          -2.0740    -5.4440    -3.2390 cc         1 48O      -0.294200
      8 C4          -0.8690    -6.0380    -2.5820 cd         1 48O      -0.000400
      9 N3          -0.4480    -5.5580    -1.3220 n          1 48O      -0.405000
     10 C5           0.6260    -6.1050    -0.7630 c3         1 48O       0.265500
     11 O3           1.3840    -5.0780     0.0410 os         1 48O      -0.331600
     12 C6           1.6510    -6.6140    -1.8920 c3         1 48O       0.114100
     13 O4           2.1410    -7.9970    -1.5580 oh         1 48O      -0.536800
     14 C7           2.3580    -5.4610    -2.0920 c3         1 48O       0.054100
     15 O5           3.5630    -6.1630    -2.5840 oh         1 48O      -0.591800
     16 C8           2.5670    -5.0160    -0.5030 c3         1 48O       0.186100
     17 C9           3.8800    -2.6790    -0.3350 c3         1 48O      -0.063000
     18 N4           3.2920    -1.4430    -0.8340 ns         1 48O      -0.462900
     19 C10          1.9680    -1.2300    -0.7110 c          1 48O       0.623100
     20 O6           1.1790    -2.0300    -1.1710 o          1 48O      -0.521100
     21 C11          1.4650     0.0000     0.0000 c3         1 48O       0.132500
     22 C12          1.9760     0.0000     1.4420 c3         1 48O      -0.127100
     23 N5          -0.5620     0.8820     0.4110 n1         1 48O       0.449000
     24 H1          -3.0050    -3.3010    -0.7210 hn         1 48O       0.343500
     25 H2          -2.4030    -5.8110    -4.2040 ha         1 48O       0.188000
     26 H3          -0.3580    -6.8730    -3.0450 h4         1 48O       0.177000
     27 H4           0.3380    -6.9320    -0.1260 h2         1 48O       0.101700
     28 H5           1.0780    -6.6230    -2.8110 h1         1 48O       0.050700
     29 H6           1.7450    -8.6200    -2.1440 ho         1 48O       0.416000
     30 H7           2.1490    -4.5900    -2.7000 h1         1 48O       0.117700
     31 H8           3.7340    -5.9060    -3.4760 ho         1 48O       0.405000
     32 H9           3.2150    -5.7670    -0.0700 h1         1 48O       0.108700
     33 H10          4.8120    -2.7480    -0.8820 h1         1 48O       0.067700
     34 H11          4.0880    -2.4550     0.7050 h1         1 48O       0.067700
     35 H12          2.7280    -1.4570    -1.6610 hn         1 48O       0.274500
     36 H14          1.8260     0.8850    -0.5110 h1         1 48O       0.114700
     37 H15          1.1840    -0.3260     2.1060 hc         1 48O       0.089033
     38 H16          2.8190    -0.6750     1.5270 hc         1 48O       0.089033
     39 H17          2.2860     1.0010     1.7150 hc         1 48O       0.089033
     40 NAX         -1.1410     1.7560     0.8190 n2         1 48O      -0.433400
     41 H13         -0.6560     2.5490     1.1890 hn         1 48O       0.629400
@<TRIPOS>BOND
     1    13    12 1   
     2    15    14 1   
     3    16    14 1   
     4    16    17 1   
     5    16    11 1   
     6    12    14 1   
     7    12    10 1   
     8    17    18 1   
     9    20    19 2   
    10    11    10 1   
    11    10     9 1   
    12     2     3 2   
    13    18    19 1   
    14    19    21 1   
    15     9     3 1   
    16     9     8 1   
    17     3     4 1   
    18    21    22 1   
    19     8     7 2   
    20     4     5 1   
    21     1    23 2   
    22     7     5 1   
    23     5     6 2   
    24     4    24 1   
    25     7    25 1   
    26     8    26 1   
    27    10    27 1   
    28    12    28 1   
    29    13    29 1   
    30    14    30 1   
    31    15    31 1   
    32    16    32 1   
    33    17    33 1   
    34    17    34 1   
    35    18    35 1   
    36    21     1 1   
    37    21    36 1   
    38    22    37 1   
    39    22    38 1   
    40    22    39 1   
    41    23    40 2   
    42    40    41 1   
@<TRIPOS>SUBSTRUCTURE
     1 48O         1 TEMP              0 ****  ****    0 ROOT
