@<TRIPOS>MOLECULE
molecule
   25    25     1     0     0
SMALL
bcc


@<TRIPOS>ATOM
      1 OAE          0.0000     0.0000     0.0000 oh         1 48P      -0.617800
      2 CAM          1.4300     0.0000     0.0000 c3         1 48P       0.199300
      3 CAL          1.9360     0.0000     1.4450 c3         1 48P       0.124100
      4 OAD          1.6760     1.2700     2.0450 oh         1 48P      -0.626800
      5 CAI          3.4470    -0.2630     1.4280 c3         1 48P      -0.088400
      6 CAN          3.6850    -1.6950     0.9460 c3         1 48P       0.072000
      7 CAJ          5.1550    -1.8950     0.6790 c          1 48P       0.872600
      8 OAC          5.8540    -0.9470     0.4100 o          1 48P      -0.829300
      9 OAA          5.6860    -3.1260     0.7380 o          1 48P      -0.829300
     10 OAF          3.2590    -2.6110     1.9570 oh         1 48P      -0.624800
     11 CAG          2.9100    -1.9530    -0.3140 c2         1 48P      -0.050200
     12 CAK          1.9260    -1.2170    -0.7220 c2         1 48P      -0.194400
     13 CAH          1.2370    -1.6100    -2.0040 c3         1 48P       0.191600
     14 OAB          1.8520    -2.7850    -2.5350 oh         1 48P      -0.601800
     15 HAE         -0.3140     0.8560    -0.2410 ho         1 48P       0.389000
     16 HAM          1.7930     0.8870    -0.5050 h1         1 48P       0.039700
     17 HAL          1.4370    -0.7830     2.0040 h1         1 48P       0.059700
     18 HAD          1.2790     1.1420     2.8910 ho         1 48P       0.392000
     19 HAI1         3.8470    -0.1450     2.4280 hc         1 48P       0.062200
     20 HAI2         3.9290     0.4330     0.7520 hc         1 48P       0.062200
     21 HAF          4.0130    -2.9810     2.3850 ho         1 48P       0.421000
     22 HAG          3.0870    -2.8790    -0.8470 ha         1 48P       0.161000
     23 HAH1         0.1910    -1.8080    -1.8050 h1         1 48P       0.015700
     24 HAH2         1.3210    -0.8020    -2.7210 h1         1 48P       0.015700
     25 HAB          1.4370    -3.0170    -3.3490 ho         1 48P       0.385000
@<TRIPOS>BOND
     1     1     2 1   
     2     2     3 1   
     3     2    12 1   
     4     3     4 1   
     5     3     5 1   
     6     5     6 1   
     7     6     7 1   
     8     6    10 1   
     9     6    11 1   
    10     7     8 1   
    11     7     9 1   
    12    11    12 2   
    13    12    13 1   
    14    13    14 1   
    15     1    15 1   
    16     2    16 1   
    17     3    17 1   
    18     4    18 1   
    19     5    19 1   
    20     5    20 1   
    21    10    21 1   
    22    11    22 1   
    23    13    23 1   
    24    13    24 1   
    25    14    25 1   
@<TRIPOS>SUBSTRUCTURE
     1 48P         1 TEMP              0 ****  ****    0 ROOT
