@<TRIPOS>MOLECULE
48P
   25    25     1     0     0
SMALL
bcc


@<TRIPOS>ATOM
      1 OAE         0.1100    0.2930   -0.3310 oh        1 48P     -0.617800
      2 CAM         1.4830   -0.0130   -0.0970 c3        1 48P      0.164300
      3 CAL         1.7940   -0.0370    1.4110 c3        1 48P      0.105100
      4 OAD         1.4800    1.2350    1.9680 oh        1 48P     -0.626800
      5 CAI         3.2450   -0.4220    1.6420 c3        1 48P     -0.096400
      6 CAN         3.6010   -1.7690    1.0150 c3        1 48P      0.043000
      7 CAJ         5.1110   -1.7540    0.5510 c         1 48P      0.905600
      8 OAC         5.5550   -0.7290   -0.0240 o         1 48P     -0.816300
      9 OAA         5.7640   -2.8040    0.8060 o         1 48P     -0.816300
     10 OAF         3.4060   -2.7730    2.0070 oh        1 48P     -0.631800
     11 CAG         2.7640   -2.1200   -0.1760 c2        1 48P     -0.091200
     12 CAK         1.8140   -1.3390   -0.7080 c2        1 48P     -0.209400
     13 CAH         1.0400   -1.6910   -1.9320 c3        1 48P      0.189600
     14 OAB         1.6210   -2.7160   -2.7190 oh        1 48P     -0.621800
     15 HAE        -0.1550    0.8980    0.3740 ho        1 48P      0.406000
     16 HAM         2.0990    0.7930   -0.5930 h1        1 48P      0.041700
     17 HAL         1.0970   -0.7490    1.9350 h1        1 48P      0.086700
     18 HAD         2.1910    1.8370    1.7200 ho        1 48P      0.397000
     19 HAI1        3.9170    0.3590    1.1930 hc        1 48P      0.065700
     20 HAI2        3.4420   -0.4680    2.7430 hc        1 48P      0.065700
     21 HAF         4.1780   -3.3610    1.9680 ho        1 48P      0.429000
     22 HAG         3.0040   -3.1040   -0.6150 ha        1 48P      0.134000
     23 HAH1        0.0240   -2.0850   -1.6510 h1        1 48P      0.043200
     24 HAH2        0.9070   -0.7720   -2.5690 h1        1 48P      0.043200
     25 HAB         2.5680   -2.5370   -2.7720 ho        1 48P      0.407000
@<TRIPOS>BOND
     1    1    2 1   
     2    1   15 1   
     3    2    3 1   
     4    2   12 1   
     5    2   16 1   
     6    3    4 1   
     7    3    5 1   
     8    3   17 1   
     9    4   18 1   
    10    5    6 1   
    11    5   19 1   
    12    5   20 1   
    13    6    7 1   
    14    6   10 1   
    15    6   11 1   
    16    7    8 1   
    17    7    9 1   
    18   10   21 1   
    19   11   12 2   
    20   11   22 1   
    21   12   13 1   
    22   13   14 1   
    23   13   23 1   
    24   13   24 1   
    25   14   25 1   
@<TRIPOS>SUBSTRUCTURE
     1 48P         1 TEMP              0 ****  ****    0 ROOT
