@<TRIPOS>MOLECULE
48Q
   99   102     1     0     0
SMALL
bcc


@<TRIPOS>ATOM
      1 OAW          0.0000     0.0000     0.0000 o          1 48Q      -0.595100
      2 CAV          1.2160     0.0000     0.0000 c          1 48Q       0.581700
      3 CAU          1.9550     0.0000     1.2800 ca         1 48Q      -0.132600
      4 CAH          1.2580     0.0450     2.4900 ca         1 48Q      -0.090000
      5 CAT          3.3470    -0.0510     1.2810 ca         1 48Q      -0.137000
      6 CAJ          4.0400    -0.0510     2.4900 ca         1 48Q      -0.129600
      7 CAK          5.5180    -0.1040     2.4970 c          1 48Q       0.609700
      8 NAM          6.1670    -0.9130     1.6350 n          1 48Q      -0.145800
      9 CAN          7.6310    -0.9070     1.5870 c3         1 48Q       0.031000
     10 CAO          8.1790    -1.9410     2.5710 c3         1 48Q      -0.057400
     11 CAP          9.7080    -1.9350     2.5200 c3         1 48Q       0.001400
     12 CAQ          5.4080    -1.7990     0.7490 c3         1 48Q       0.031000
     13 CAR          5.4490    -1.2480    -0.6780 c3         1 48Q      -0.057400
     14 CAS          4.5490    -2.0970    -1.5780 c3         1 48Q       0.001400
     15 OAL          6.1480     0.5820     3.2780 o          1 48Q      -0.642100
     16 CAI          3.3380    -0.0020     3.6960 ca         1 48Q      -0.055000
     17 CAG          1.9510     0.0440     3.6910 ca         1 48Q       0.007600
     18 NAF          1.2510     0.0890     4.9000 nh         1 48Q      -0.355000
     19 CAE         -0.1980     0.1320     4.6670 c3         1 48Q       0.132800
     20 CAD         -0.9340     0.0340     6.0050 c3         1 48Q      -0.025400
     21 CAC         -0.5070     1.1970     6.9030 c3         1 48Q      -0.029400
     22 CAB          1.0120     1.1580     7.0900 c3         1 48Q      -0.025400
     23 CAA          1.6910     1.2230     5.7210 c3         1 48Q       0.132800
     24 NAX          1.8900    -0.0050    -1.1670 ns         1 48Q      -0.084100
     25 CAY          1.1990     0.0540    -2.3670 c2         1 48Q      -0.131600
     26 CAZ          1.3430     1.1120    -3.1700 ce         1 48Q      -0.080200
     27 CBA          2.2620     2.2030    -2.7940 ca         1 48Q      -0.062800
     28 CBF          2.8430     3.0020    -3.7810 ca         1 48Q      -0.115500
     29 CBE          3.7020     4.0210    -3.4220 ca         1 48Q      -0.098000
     30 CBD          3.9860     4.2530    -2.0870 ca         1 48Q      -0.097000
     31 CBC          3.4120     3.4650    -1.1040 ca         1 48Q      -0.098000
     32 CBB          2.5480     2.4470    -1.4490 ca         1 48Q      -0.115500
     33 CBG          0.2820    -1.0750    -2.7650 c3         1 48Q       0.233300
     34 OBH         -0.6060    -1.3710    -1.6860 oh         1 48Q      -0.537800
     35 CBI          1.1160    -2.3150    -3.0950 c3         1 48Q       0.099800
     36 NBJ          0.2250    -3.4070    -3.5090 n7         1 48Q      -0.567200
     37 CBK          0.9960    -4.5770    -3.9490 c3         1 48Q       0.160500
     38 CBL          1.8040    -4.2150    -5.1970 c3         1 48Q      -0.023100
     39 CBM          1.9490    -5.0100    -2.8320 c3         1 48Q      -0.023100
     40 CBN          0.0540    -5.7080    -4.2720 ca         1 48Q      -0.044300
     41 CBP          0.5530    -6.9220    -4.7040 ca         1 48Q      -0.144000
     42 CBQ         -0.3150    -7.9620    -5.0000 ca         1 48Q       0.152100
     43 CBR         -1.6840    -7.7810    -4.8610 ca         1 48Q      -0.213000
     44 CBS         -2.1790    -6.5660    -4.4280 ca         1 48Q      -0.054000
     45 CBO         -1.3100    -5.5320    -4.1290 ca         1 48Q      -0.137000
     46 OBT          0.1750    -9.1560    -5.4260 os         1 48Q      -0.309900
     47 CBU         -0.7780   -10.1830    -5.7130 c3         1 48Q       0.244700
     48 H1           0.1760     0.0800     2.4890 ha         1 48Q       0.149000
     49 H2           3.8910     0.0010     0.3460 ha         1 48Q       0.134000
     50 H3           7.9970     0.0770     1.8560 h1         1 48Q       0.037700
     51 H4           7.9600    -1.1530     0.5840 h1         1 48Q       0.037700
     52 H5           7.8130    -2.9250     2.3030 hc         1 48Q       0.023450
     53 H6           7.8500    -1.6950     3.5740 hc         1 48Q       0.023450
     54 H7          10.0380    -2.2080     1.5250 hc         1 48Q       0.005700
     55 H8          10.0970    -2.6470     3.2380 hc         1 48Q       0.005700
     56 H9          10.0740    -0.9440     2.7620 hc         1 48Q       0.005700
     57 H10          5.8460    -2.7890     0.7670 h1         1 48Q       0.037700
     58 H11          4.3800    -1.8520     1.0860 h1         1 48Q       0.037700
     59 H12          5.0980    -0.2230    -0.6800 hc         1 48Q       0.023450
     60 H13          6.4660    -1.2820    -1.0490 hc         1 48Q       0.023450
     61 H14          5.0740    -3.0010    -1.8650 hc         1 48Q       0.005700
     62 H15          4.2910    -1.5330    -2.4660 hc         1 48Q       0.005700
     63 H16          3.6450    -2.3600    -1.0420 hc         1 48Q       0.005700
     64 H17          3.8760    -0.0020     4.6360 ha         1 48Q       0.131000
     65 H18         -0.4570     1.0650     4.1810 h1         1 48Q       0.022450
     66 H19         -0.4860    -0.7010     4.0360 h1         1 48Q       0.022450
     67 H20         -0.6840    -0.9040     6.4860 hc         1 48Q       0.021200
     68 H21         -2.0030     0.0840     5.8330 hc         1 48Q       0.021200
     69 H22         -0.7890     2.1340     6.4380 hc         1 48Q       0.015200
     70 H23         -0.9920     1.1050     7.8680 hc         1 48Q       0.015200
     71 H24          1.3230     2.0060     7.6880 hc         1 48Q       0.021200
     72 H25          1.2900     0.2360     7.5870 hc         1 48Q       0.021200
     73 H26          2.7660     1.1780     5.8500 h1         1 48Q       0.022450
     74 H27          1.4200     2.1500     5.2290 h1         1 48Q       0.022450
     75 H28          2.8870    -0.0850    -1.1690 hn         1 48Q       0.187500
     76 H29          0.8030     1.1580    -4.1080 ha         1 48Q       0.114000
     77 H30          2.6220     2.8220    -4.8260 ha         1 48Q       0.121000
     78 H31          4.1540     4.6410    -4.1860 ha         1 48Q       0.105000
     79 H32          4.6620     5.0530    -1.8110 ha         1 48Q       0.103000
     80 H33          3.6370     3.6540    -0.0620 ha         1 48Q       0.105000
     81 H34          2.1000     1.8320    -0.6780 ha         1 48Q       0.121000
     82 H35         -0.2920    -0.7840    -3.6360 h1         1 48Q       0.001700
     83 H36         -1.4960    -1.2290    -1.9640 ho         1 48Q       0.387000
     84 H37          1.8030    -2.0850    -3.9000 h1         1 48Q       0.023700
     85 H38          1.6750    -2.6180    -2.2180 h1         1 48Q       0.023700
     86 H39         -0.3620    -3.0930    -4.2560 hn         1 48Q       0.255800
     87 H41          2.5940    -3.5240    -4.9270 hc         1 48Q       0.015033
     88 H42          1.1520    -3.7510    -5.9270 hc         1 48Q       0.015033
     89 H43          2.2390    -5.1130    -5.6190 hc         1 48Q       0.015033
     90 H44          2.8640    -4.4340    -2.8950 hc         1 48Q       0.015033
     91 H45          1.4800    -4.8390    -1.8710 hc         1 48Q       0.015033
     92 H46          2.1770    -6.0640    -2.9400 hc         1 48Q       0.015033
     93 H47          1.6220    -7.0610    -4.8110 ha         1 48Q       0.121000
     94 H48         -2.3640    -8.5910    -5.0940 ha         1 48Q       0.119000
     95 H49         -3.2470    -6.4250    -4.3180 ha         1 48Q       0.100000
     96 H50         -1.7000    -4.5800    -3.7890 ha         1 48Q       0.125000
     97 H51         -0.2590   -11.0760    -6.0400 h1         1 48Q      -0.002633
     98 H52         -1.4470    -9.8470    -6.4960 h1         1 48Q      -0.002633
     99 H53         -1.3510   -10.4040    -4.8200 h1         1 48Q      -0.002633
@<TRIPOS>BOND
     1     1     2 2   
     2     2     3 1   
     3     2    24 1   
     4     3     4 ar  
     5     3     5 ar  
     6     4    17 ar  
     7     4    48 1   
     8     5     6 ar  
     9     5    49 1   
    10     6     7 1   
    11     6    16 ar  
    12     7     8 1   
    13     7    15 2   
    14     8     9 1   
    15     8    12 1   
    16     9    10 1   
    17     9    50 1   
    18     9    51 1   
    19    10    11 1   
    20    10    52 1   
    21    10    53 1   
    22    11    54 1   
    23    11    55 1   
    24    11    56 1   
    25    12    13 1   
    26    12    57 1   
    27    12    58 1   
    28    13    14 1   
    29    13    59 1   
    30    13    60 1   
    31    14    61 1   
    32    14    62 1   
    33    14    63 1   
    34    16    17 ar  
    35    16    64 1   
    36    17    18 1   
    37    18    19 1   
    38    18    23 1   
    39    19    20 1   
    40    19    65 1   
    41    19    66 1   
    42    20    21 1   
    43    20    67 1   
    44    20    68 1   
    45    21    22 1   
    46    21    69 1   
    47    21    70 1   
    48    22    23 1   
    49    22    71 1   
    50    22    72 1   
    51    23    73 1   
    52    23    74 1   
    53    24    25 1   
    54    24    75 1   
    55    25    26 2   
    56    25    33 1   
    57    26    27 1   
    58    26    76 1   
    59    27    28 ar  
    60    27    32 ar  
    61    28    29 ar  
    62    28    77 1   
    63    29    30 ar  
    64    29    78 1   
    65    30    31 ar  
    66    30    79 1   
    67    31    32 ar  
    68    31    80 1   
    69    32    81 1   
    70    33    34 1   
    71    33    35 1   
    72    33    82 1   
    73    34    83 1   
    74    35    36 1   
    75    35    84 1   
    76    35    85 1   
    77    36    37 1   
    78    36    86 1   
    79    37    38 1   
    80    37    39 1   
    81    37    40 1   
    82    38    87 1   
    83    38    88 1   
    84    38    89 1   
    85    39    90 1   
    86    39    91 1   
    87    39    92 1   
    88    40    41 ar  
    89    40    45 ar  
    90    41    42 ar  
    91    41    93 1   
    92    42    43 ar  
    93    42    46 1   
    94    43    44 ar  
    95    43    94 1   
    96    44    45 ar  
    97    44    95 1   
    98    45    96 1   
    99    46    47 1   
   100    47    97 1   
   101    47    98 1   
   102    47    99 1   
@<TRIPOS>SUBSTRUCTURE
     1 48Q         1 TEMP              0 ****  ****    0 ROOT
