@<TRIPOS>MOLECULE
48R
   43    45     1     0     0
SMALL
bcc


@<TRIPOS>ATOM
      1 O21          0.0000     0.0000     0.0000 o          1 48R      -0.604100
      2 C19          1.2120     0.0000     0.0000 c          1 48R       0.655100
      3 N20          1.8860     0.0050    -1.1680 ns         1 48R      -0.318300
      4 S22          1.0580     0.0110    -2.6020 s6         1 48R       0.955600
      5 O23          0.1330    -1.0600    -2.4770 o          1 48R      -0.567300
      6 C24          0.1890     1.6040    -2.6160 c3         1 48R       0.020700
      7 O25          2.0750    -0.0100    -3.5940 o          1 48R      -0.567300
      8 C17          1.9660     0.0000     1.3050 c3         1 48R      -0.137700
      9 C18          2.8460    -1.2490     1.3870 c3         1 48R       0.004900
     10 C16          0.9720     0.0010     2.4670 c3         1 48R       0.235400
     11 O15          1.6830     0.1190     3.7020 os         1 48R      -0.201300
     12 N14          0.8500     0.1290     4.8480 n2         1 48R      -0.358200
     13 C07          1.3760     0.2320     6.0340 cc         1 48R       0.478500
     14 C08          0.6460     0.2570     7.3230 ca         1 48R      -0.157400
     15 C09          1.5950     0.3790     8.3510 cp         1 48R      -0.025500
     16 C10          1.1670     0.4260     9.6750 ca         1 48R      -0.078500
     17 C11         -0.1820     0.3530     9.9680 ca         1 48R      -0.089500
     18 C12         -1.1150     0.2330     8.9530 ca         1 48R      -0.106500
     19 C13         -0.7080     0.1850     7.6340 ca         1 48R      -0.052500
     20 C02          2.9460     0.4340     7.7460 cp         1 48R      -0.025500
     21 C03          2.8200     0.3390     6.3510 ca         1 48R      -0.157400
     22 C01          4.2120     0.5500     8.3130 ca         1 48R      -0.078500
     23 C06          5.3320     0.5780     7.5030 ca         1 48R      -0.089500
     24 C05          5.2050     0.4910     6.1280 ca         1 48R      -0.106500
     25 C04          3.9560     0.3600     5.5490 ca         1 48R      -0.052500
     26 H1           2.8870     0.0170    -1.1680 hn         1 48R       0.237500
     27 H2           0.7770     2.3400    -2.0810 h1         1 48R       0.067700
     28 H3          -0.7750     1.4930    -2.1350 h1         1 48R       0.067700
     29 H4           0.0470     1.9280    -3.6390 h1         1 48R       0.067700
     30 H5           2.5890     0.8840     1.3620 hc         1 48R       0.044700
     31 H6           2.7180    -1.8400     0.4880 hc         1 48R       0.015033
     32 H7           3.8840    -0.9540     1.4810 hc         1 48R       0.015033
     33 H8           2.5580    -1.8380     2.2490 hc         1 48R       0.015033
     34 H9           0.2920     0.8370     2.3610 h1         1 48R       0.019700
     35 H10          0.4090    -0.9250     2.4620 h1         1 48R       0.019700
     36 H11          1.8910     0.5190    10.4750 ha         1 48R       0.105000
     37 H12         -0.5100     0.3890    11.0000 ha         1 48R       0.103000
     38 H13         -2.1690     0.1760     9.1940 ha         1 48R       0.105000
     39 H14         -1.4430     0.0920     6.8430 ha         1 48R       0.113500
     40 H15          4.3200     0.6190     9.3890 ha         1 48R       0.105000
     41 H16          6.3140     0.6800     7.9470 ha         1 48R       0.103000
     42 H17          6.0890     0.5140     5.5020 ha         1 48R       0.105000
     43 H18          3.8610     0.2930     4.4720 ha         1 48R       0.113500
@<TRIPOS>BOND
     1     1     2 2   
     2     2     3 1   
     3     2     8 1   
     4     3     4 1   
     5     3    26 1   
     6     4     5 2   
     7     4     6 1   
     8     4     7 2   
     9     6    27 1   
    10     6    28 1   
    11     6    29 1   
    12     8     9 1   
    13     8    10 1   
    14     8    30 1   
    15     9    31 1   
    16     9    32 1   
    17     9    33 1   
    18    10    11 1   
    19    10    34 1   
    20    10    35 1   
    21    11    12 1   
    22    12    13 2   
    23    13    14 1   
    24    13    21 1   
    25    14    15 ar  
    26    14    19 ar  
    27    15    16 ar  
    28    15    20 1   
    29    16    17 ar  
    30    16    36 1   
    31    17    18 ar  
    32    17    37 1   
    33    18    19 ar  
    34    18    38 1   
    35    19    39 1   
    36    20    21 ar  
    37    20    22 ar  
    38    21    25 ar  
    39    22    23 ar  
    40    22    40 1   
    41    23    24 ar  
    42    23    41 1   
    43    24    25 ar  
    44    24    42 1   
    45    25    43 1   
@<TRIPOS>SUBSTRUCTURE
     1 48R         1 TEMP              0 ****  ****    0 ROOT
