@<TRIPOS>MOLECULE
molecule
   35    35     1     0     0
SMALL
bcc


@<TRIPOS>ATOM
      1 C11          0.0000     0.0000     0.0000 c3         1 48S       0.097300
      2 C13          5.6580    -0.1250    -2.6100 ca         1 48S      -0.003300
      3 C14          6.2620    -1.1980    -3.2400 ca         1 48S      -0.086500
      4 C15          6.4310     0.8360    -1.9880 ca         1 48S      -0.086500
      5 C16          7.8100     0.7250    -1.9940 ca         1 48S      -0.135000
      6 O5           3.4050     2.4630    -5.8260 o          1 48S      -0.913833
      7 O7           3.1870    -0.0380    -5.5700 o          1 48S      -0.913833
      8 O6           5.5120     0.9370    -5.4460 o          1 48S      -0.913833
      9 C1           3.7520     1.3070    -3.2930 c3         1 48S      -0.243600
     10 C2           4.1560    -0.0010    -2.6090 c3         1 48S       0.012600
     11 C3           3.6460    -0.0000    -1.1670 c3         1 48S      -0.137400
     12 C8           2.1390    -0.0000    -1.1670 c          1 48S       0.671100
     13 N9           1.4650     0.0000     0.0000 n          1 48S      -0.401300
     14 O10          2.1720     0.0000     1.2270 oh         1 48S      -0.398100
     15 O12          1.5330    -0.0000    -2.2170 o          1 48S      -0.520100
     16 C18          8.4140    -0.3480    -2.6230 ca         1 48S      -0.119300
     17 C19          9.9150    -0.4690    -2.6300 c3         1 48S      -0.032800
     18 C17          7.6400    -1.3090    -3.2460 ca         1 48S      -0.135000
     19 H1          -0.3610     0.0710     1.0190 h1         1 48S       0.035033
     20 H2          -0.3610     0.8470    -0.5710 h1         1 48S       0.035033
     21 H3          -0.3610    -0.9180    -0.4480 h1         1 48S       0.035033
     22 H4           5.6550    -1.9520    -3.7280 ha         1 48S       0.128000
     23 H5           5.9580     1.6770    -1.4950 ha         1 48S       0.128000
     24 H6           8.4160     1.4790    -1.5060 ha         1 48S       0.094000
     25 H9           2.7160     1.5290    -3.0650 hc         1 48S       0.030700
     26 H10          4.3810     2.1120    -2.9340 hc         1 48S       0.030700
     27 H11          3.7230    -0.8370    -3.1450 hc         1 48S       0.091700
     28 H12          4.0070    -0.8850    -0.6560 hc         1 48S       0.041200
     29 H13          4.0060     0.8840    -0.6560 hc         1 48S       0.041200
     30 H14          1.7560    -0.5930     1.8300 ho         1 48S       0.375000
     31 H15         10.2980    -0.2750    -1.6350 hc         1 48S       0.017367
     32 H16         10.1960    -1.4690    -2.9370 hc         1 48S       0.017367
     33 H17         10.3320     0.2520    -3.3240 hc         1 48S       0.017367
     34 H18          8.1130    -2.1500    -3.7390 ha         1 48S       0.094000
     35 P4           3.9540     1.1370    -5.0970 p5         1 48S       1.046700
@<TRIPOS>BOND
     1    14    13 1
     2     1    13 1
     3    13    12 1
     4    12    15 2
     5    12    11 1
     6     7    35 1
     7     9    35 1
     8     9    10 1
     9    11    10 1
    10    35     6 1
    11    35     8 1
    12    10     2 1
    13     4     2 ar
    14     4     5 ar
    15     2     3 ar
    16     5    16 ar
    17     3    18 ar
    18    16    18 ar
    19    16    17 1
    20     1    19 1
    21     1    20 1
    22     1    21 1
    23     3    22 1
    24     4    23 1
    25     5    24 1
    26     9    25 1
    27     9    26 1
    28    10    27 1
    29    11    28 1
    30    11    29 1
    31    14    30 1
    32    17    31 1
    33    17    32 1
    34    17    33 1
    35    18    34 1
@<TRIPOS>SUBSTRUCTURE
     1 48S         1 TEMP              0 ****  ****    0 ROOT
