@<TRIPOS>MOLECULE
48T
   63    64     1     0     0
SMALL
bcc


@<TRIPOS>ATOM
      1 N1          3.2610   -1.1790   -0.6520 n4        1 48T     -0.830600
      2 CA1         2.9650   -0.5040   -1.9540 c3        1 48T     -0.069500
      3 C1          4.2660    0.3010   -2.4200 c         1 48T      0.956600
      4 O11         4.0950    1.0870   -3.3820 o         1 48T     -0.774300
      5 CB1         1.7260    0.3810   -1.8750 c3        1 48T     -0.079400
      6 CG1         1.4070    1.0130   -3.2190 c3        1 48T     -0.121400
      7 CD1         2.0580    2.3680   -3.3470 c         1 48T      0.610100
      8 OE1         2.2480    3.1760   -2.4470 o         1 48T     -0.466100
      9 O12         5.3170    0.0390   -1.8000 o         1 48T     -0.774300
     10 N2          2.4550    2.7700   -4.7410 n4        1 48T     -0.658800
     11 CA2         2.3900    4.2400   -5.0010 c3        1 48T      0.059500
     12 C2          0.9250    4.6960   -5.2070 c         1 48T      0.646100
     13 O2          0.0150    3.8540   -5.3410 o         1 48T     -0.596100
     14 CB2         3.1930    4.6270   -6.2450 c3        1 48T     -0.075300
     15 SG2         4.8110    3.9270   -6.1940 ss        1 48T     -0.191200
     16 CZ4         4.0380   -2.0340  -13.2190 ca        1 48T     -0.108000
     17 CE4         4.2900   -2.8620  -14.3110 ca        1 48T     -0.128000
     18 CD4         5.6010   -3.1960  -14.6500 ca        1 48T     -0.108000
     19 CG4         6.6630   -2.6970  -13.8950 ca        1 48T     -0.128000
     20 CB4         6.4170   -1.8630  -12.8060 ca        1 48T     -0.108000
     21 CH4         5.1010   -1.5260  -12.4580 cp        1 48T     -0.073000
     22 CH5         4.8400   -0.6540  -11.3160 cp        1 48T      0.036000
     23 CB5         3.7600   -0.9070  -10.4560 ca        1 48T     -0.138500
     24 CG5         3.5150   -0.0760   -9.3690 ca        1 48T     -0.067000
     25 CD5         4.3430    1.0300   -9.1140 ca        1 48T     -0.202600
     26 CE5         5.4200    1.2860   -9.9760 ca        1 48T     -0.067000
     27 CZ5         5.6660    0.4540  -11.0610 ca        1 48T     -0.138500
     28 O5          3.0630    1.6790   -7.2210 o         1 48T     -0.623100
     29 N3          0.6920    6.0540   -5.1640 n         1 48T     -0.505900
     30 CA3        -0.5430    6.6020   -5.6560 c3        1 48T     -0.022000
     31 C3         -0.4550    7.1130   -7.0850 c         1 48T      0.598100
     32 C13         4.9740    3.0350   -7.7040 c3        1 48T     -0.152300
     33 O31        -1.5720    7.6160   -7.6710 oh        1 48T     -0.548100
     34 C14         4.0460    1.8810   -7.9570 c         1 48T      0.625700
     35 O32         0.5520    7.1280   -7.7930 o         1 48T     -0.492000
     36 H11N        2.9310   -0.6100    0.1280 hn        1 48T      0.457800
     37 H12N        4.3030   -1.2530   -0.5880 hn        1 48T      0.457800
     38 HA1         2.8130   -1.3120   -2.7250 hx        1 48T      0.100700
     39 HB11        0.8380   -0.2350   -1.5640 hc        1 48T      0.072200
     40 HB12        1.8720    1.1860   -1.1040 hc        1 48T      0.072200
     41 HG11        0.2970    1.1760   -3.3100 hc        1 48T      0.104200
     42 HG12        1.7360    0.3320   -4.0510 hc        1 48T      0.104200
     43 H2          1.8630    2.2790   -5.4280 hn        1 48T      0.504300
     44 HA2         2.8250    4.7550   -4.0880 hx        1 48T      0.145700
     45 HB21        3.2920    5.7430   -6.2650 h1        1 48T      0.112200
     46 HB22        2.6500    4.3150   -7.1740 h1        1 48T      0.112200
     47 H3         -2.3240    7.5720   -7.0620 ho        1 48T      0.435000
     48 H131        4.9050    3.7340   -8.5780 h1        1 48T      0.123200
     49 H132        6.0320    2.6510   -7.6520 h1        1 48T      0.123200
     50 HE4         3.4510   -3.2520  -14.9070 ha        1 48T      0.141500
     51 HZ4         3.0020   -1.7680  -12.9610 ha        1 48T      0.135000
     52 HZ5         6.5100    0.6680  -11.7350 ha        1 48T      0.152000
     53 HB5         3.1080   -1.7750  -10.6410 ha        1 48T      0.152000
     54 HE5         6.0820    2.1500   -9.8080 ha        1 48T      0.142000
     55 HG5         2.6670   -0.2790   -8.6950 ha        1 48T      0.142000
     56 HA31       -1.3540    5.8170   -5.6000 h1        1 48T      0.107200
     57 HA32       -0.8300    7.4690   -4.9900 h1        1 48T      0.107200
     58 HB4         7.2580   -1.4770  -12.2110 ha        1 48T      0.135000
     59 HG4         7.6980   -2.9610  -14.1590 ha        1 48T      0.141500
     60 H13         2.8400   -2.1030   -0.6060 hn        1 48T      0.457800
     61 H22         3.4520    2.4570   -4.8990 hn        1 48T      0.504300
     62 H32         1.4800    6.6640   -5.2140 hn        1 48T      0.329500
     63 HD4         5.7980   -3.8520  -15.5110 ha        1 48T      0.142000
@<TRIPOS>BOND
     1    1    2 1   
     2    1   36 1   
     3    1   37 1   
     4    1   60 1   
     5    2    3 1   
     6    2    5 1   
     7    2   38 1   
     8    3    4 1   
     9    3    9 1   
    10    5    6 1   
    11    5   39 1   
    12    5   40 1   
    13    6    7 1   
    14    6   41 1   
    15    6   42 1   
    16    7    8 2   
    17    7   10 1   
    18   10   11 1   
    19   10   43 1   
    20   10   61 1   
    21   11   12 1   
    22   11   14 1   
    23   11   44 1   
    24   12   13 2   
    25   12   29 1   
    26   14   15 1   
    27   14   45 1   
    28   14   46 1   
    29   15   32 1   
    30   16   17 ar  
    31   16   21 ar  
    32   16   51 1   
    33   17   18 ar  
    34   17   50 1   
    35   18   19 ar  
    36   18   63 1   
    37   19   20 ar  
    38   19   59 1   
    39   20   21 ar  
    40   20   58 1   
    41   21   22 1   
    42   22   23 ar  
    43   22   27 ar  
    44   23   24 ar  
    45   23   53 1   
    46   24   25 ar  
    47   24   55 1   
    48   25   26 ar  
    49   25   34 1   
    50   26   27 ar  
    51   26   54 1   
    52   27   52 1   
    53   28   34 2   
    54   29   30 1   
    55   29   62 1   
    56   30   31 1   
    57   30   56 1   
    58   30   57 1   
    59   31   33 1   
    60   31   35 2   
    61   32   34 1   
    62   32   48 1   
    63   32   49 1   
    64   33   47 1   
@<TRIPOS>SUBSTRUCTURE
     1 48T         1 TEMP              0 ****  ****    0 ROOT
