@<TRIPOS>MOLECULE
molecule
   61    62     1     0     0
SMALL
bcc


@<TRIPOS>ATOM
      1 N1           0.0000     0.0000     0.0000 nz         1 48T      -0.797600
      2 CA1          1.4690     0.0000     0.0000 c3         1 48T      -0.022500
      3 C1           1.9710     0.0000     1.4210 c          1 48T       0.873600
      4 O11          3.2240    -0.3980     1.6900 o          1 48T      -0.781800
      5 CB1          1.9800     1.2490    -0.7210 c3         1 48T      -0.072400
      6 CG1          1.5750     1.1880    -2.1960 c3         1 48T      -0.177400
      7 CD1          2.0780     2.4180    -2.9050 c          1 48T       0.672100
      8 OE1          2.6990     3.2600    -2.2930 o          1 48T      -0.586100
      9 O12          1.2450     0.3580     2.3190 o          1 48T      -0.781800
     10 N2           1.8390     2.5820    -4.2210 ns         1 48T      -0.556900
     11 CA2          2.3280     3.7780    -4.9120 c3         1 48T       0.056700
     12 C2           1.3350     4.8990    -4.7380 c          1 48T       0.632100
     13 O2           0.3200     4.7170    -4.1010 o          1 48T      -0.638100
     14 CB2          2.4980     3.4730    -6.4010 c3         1 48T      -0.011300
     15 SG2          3.6920     2.1240    -6.6100 ss         1 48T      -0.288200
     16 CZ4          6.7630    -2.9720   -14.2070 ca         1 48T      -0.121000
     17 CE4          6.9890    -3.4240   -15.4920 ca         1 48T      -0.126500
     18 CD4          6.3620    -2.8130   -16.5630 ca         1 48T      -0.136000
     19 CG4          5.5050    -1.7460   -16.3540 ca         1 48T      -0.126500
     20 CB4          5.2720    -1.2860   -15.0730 ca         1 48T      -0.121000
     21 CH4          5.9010    -1.8980   -13.9900 cp         1 48T      -0.029000
     22 CH5          5.3920    -0.2520   -12.8000 cp         1 48T       0.000000
     23 CB5          6.0690    -0.9270   -11.7830 ca         1 48T      -0.142500
     24 CG5          5.8540    -0.5860   -10.4730 ca         1 48T      -0.078500
     25 CD5          4.9560     0.4400   -10.1550 ca         1 48T      -0.185600
     26 CE5          4.2800     1.1160   -11.1770 ca         1 48T      -0.078500
     27 CZ5          4.5000     0.7760   -12.4870 ca         1 48T      -0.142500
     28 O5           5.3110     0.2200    -7.8660 o          1 48T      -0.501100
     29 N3           1.5760     6.1040    -5.2920 ns         1 48T      -0.542900
     30 CA3          0.6110     7.1940    -5.1240 c3         1 48T      -0.004000
     31 C3           1.1140     8.4240    -5.8340 c          1 48T       0.883600
     32 C13          3.7580     1.9120    -8.4100 c3         1 48T      -0.103300
     33 O31          0.3890     9.5540    -5.8150 o          1 48T      -0.842800
     34 C14          4.7250     0.8060    -8.7510 c          1 48T       0.589700
     35 O32          2.1710     8.3930    -6.4210 o          1 48T      -0.842800
     36 H11N        -0.3340     0.9340     0.1320 hn         1 48T       0.439800
     37 H12N        -0.3340    -0.3530    -0.8750 hn         1 48T       0.439800
     38 HA1          1.8310    -0.8850    -0.5100 hx         1 48T       0.098700
     39 HB11         1.5480     2.1310    -0.2640 hc         1 48T       0.103700
     40 HB12         3.0590     1.2940    -0.6440 hc         1 48T       0.103700
     41 HG11         0.4960     1.1430    -2.2720 hc         1 48T       0.044200
     42 HG12         2.0070     0.3060    -2.6520 hc         1 48T       0.044200
     43 H2           1.3180     1.8910    -4.7250 hn         1 48T       0.313500
     44 HA2          3.2820     4.0720    -4.4920 h1         1 48T       0.108700
     45 HB21         1.5440     3.1790    -6.8210 h1         1 48T       0.075200
     46 HB22         2.8600     4.3570    -6.9120 h1         1 48T       0.075200
     47 H3           2.4290     6.2640    -5.7900 hn         1 48T       0.333500
     48 H131         4.0880     2.8350    -8.8710 h1         1 48T       0.080200
     49 H132         2.7720     1.6560    -8.7800 h1         1 48T       0.080200
     50 HE4          7.6580    -4.2590   -15.6620 ha         1 48T       0.133500
     51 HZ4          7.2540    -3.4510   -13.3690 ha         1 48T       0.137500
     52 HZ5          3.5850     0.8900   -13.0550 ha         1 48T       0.141500
     53 HB5          6.5210    -1.8910   -11.9810 ha         1 48T       0.141500
     54 HE5          3.5860     1.9120   -10.9330 ha         1 48T       0.150500
     55 HG5          6.3790    -1.1110    -9.6830 ha         1 48T       0.150500
     56 HA31        -0.3430     6.8990    -5.5440 h1         1 48T       0.048200
     57 HA32         0.4900     7.4090    -4.0690 h1         1 48T       0.048200
     58 HB4          4.6010    -0.4510   -14.9100 ha         1 48T       0.137500
     59 HG4          5.0170    -1.2710   -17.1960 ha         1 48T       0.133500
     60 H13         -0.3340    -0.5180     0.7890 hn         1 48T       0.439800
     61 HD4          6.5420    -3.1710   -17.5690 ha         1 48T       0.129000
@<TRIPOS>BOND
     1     1     2 1   
     2     2     3 1   
     3     2     5 1   
     4     3     4 1   
     5     3     9 1   
     6     5     6 1   
     7     6     7 1   
     8     7     8 2   
     9     7    10 1   
    10    10    11 1   
    11    11    12 1   
    12    11    14 1   
    13    12    13 2   
    14    12    29 1   
    15    14    15 1   
    16    15    32 1   
    17    20    19 ar  
    18    20    21 ar  
    19    19    18 ar  
    20    18    17 ar  
    21    17    16 ar  
    22    16    21 ar  
    23    21    22 1   
    24    22    27 ar  
    25    22    23 ar  
    26    27    26 ar  
    27    26    25 ar  
    28    25    24 ar  
    29    25    34 1   
    30    24    23 ar  
    31    28    34 2   
    32    29    30 1   
    33    30    31 1   
    34    31    33 1   
    35    31    35 1   
    36    32    34 1   
    37     1    36 1   
    38     1    37 1   
    39     2    38 1   
    40     5    39 1   
    41     5    40 1   
    42     6    41 1   
    43     6    42 1   
    44    10    43 1   
    45    11    44 1   
    46    14    45 1   
    47    14    46 1   
    48    29    47 1   
    49    32    48 1   
    50    32    49 1   
    51    20    58 1   
    52    19    59 1   
    53    18    61 1   
    54    17    50 1   
    55    16    51 1   
    56    27    52 1   
    57    23    53 1   
    58    26    54 1   
    59    24    55 1   
    60    30    56 1   
    61    30    57 1   
    62    60     1 1   
@<TRIPOS>SUBSTRUCTURE
     1 48T         1 TEMP              0 ****  ****    0 ROOT
