@<TRIPOS>MOLECULE
molecule
   49    51     1     0     0
SMALL
bcc


@<TRIPOS>ATOM
      1 C8           0.0000     0.0000     0.0000 c3         1 48U       0.096800
      2 C5          10.0460     0.9350     3.6270 ce         1 48U       0.085800
      3 C6          10.3620     1.0840     2.3450 cf         1 48U      -0.400100
      4 N1          10.5480    -0.8530     0.3980 n7         1 48U      -0.896100
      5 C2           7.9190     2.8730     5.9590 cd         1 48U      -0.160000
      6 N3           1.4650     0.0000     0.0000 n          1 48U      -0.491800
      7 C4           9.1520     1.9020     4.2820 cc         1 48U      -0.047900
      8 C7           2.1980     0.0000     1.2680 c3         1 48U       0.096800
      9 C28          2.1390    -0.0000    -1.1680 c          1 48U       0.672700
     10 O4           1.5350     0.1080    -2.2180 o          1 48U      -0.596100
     11 C27          3.6090    -0.1310    -1.1710 ca         1 48U      -0.111600
     12 C26          4.2430    -0.9320    -0.2190 ca         1 48U      -0.151000
     13 C22          5.6160    -1.0520    -0.2260 ca         1 48U       0.131900
     14 F1           6.2310    -1.8260     0.6940 f          1 48U      -0.131900
     15 C15          6.3700    -0.3750    -1.1820 ca         1 48U       0.037600
     16 C21          5.7410     0.4230    -2.1310 ca         1 48U      -0.105000
     17 C24          4.3690     0.5430    -2.1320 ca         1 48U      -0.085000
     18 N2           7.7610    -0.4970    -1.1880 n          1 48U      -0.406000
     19 C50          8.5960     0.3090    -0.5090 c          1 48U       0.689500
     20 O3           8.2490     1.2340     0.1940 o          1 48U      -0.608500
     21 C12         10.0310    -0.1060    -0.7510 c3         1 48U       0.161500
     22 C13          9.9570    -1.0150    -1.9990 c3         1 48U      -0.103400
     23 C14          8.4990    -1.5270    -1.9290 c3         1 48U       0.098000
     24 O2          12.4160     0.6890     0.8730 o          1 48U      -0.636300
     25 O1          11.7550    -1.0520     2.5410 o          1 48U      -0.636300
     26 S2           8.4270     3.3030     3.5030 ss         1 48U      -0.039800
     27 C1           7.6200     3.7550     4.9990 cc         1 48U       0.067300
     28 Cl1          6.5890     5.1390     5.1980 cl         1 48U      -0.053400
     29 C3           8.7620     1.8540     5.5740 cd         1 48U      -0.120000
     30 H1          -0.3610    -0.1930     1.0030 h1         1 48U       0.044867
     31 H2          -0.3610    -0.7720    -0.6690 h1         1 48U       0.044867
     32 H3          -0.3610     0.9650    -0.3340 h1         1 48U       0.044867
     33 H4          10.4480     0.1010     4.1910 ha         1 48U       0.161000
     34 H5           9.9610     1.9180     1.7820 h4         1 48U       0.188000
     35 H6          10.4040    -1.8420     0.4570 hn         1 48U       0.459800
     36 H8           3.1320     0.5350     1.1460 h1         1 48U       0.044867
     37 H9           2.4030    -1.0210     1.5670 h1         1 48U       0.044867
     38 H10          1.6010     0.4860     2.0300 h1         1 48U       0.044867
     39 H11          3.6520    -1.5200     0.4730 ha         1 48U       0.160000
     40 H12          6.3300     0.9470    -2.8750 ha         1 48U       0.151000
     41 H13          3.8790     1.1650    -2.8720 ha         1 48U       0.162000
     42 H14         10.6450     0.7640    -0.9540 h1         1 48U       0.108700
     43 H15         10.6580    -1.8370    -1.9190 hc         1 48U       0.073200
     44 H16         10.1210    -0.4420    -2.9040 hc         1 48U       0.073200
     45 H17          8.0920    -1.6320    -2.9280 h1         1 48U       0.056700
     46 H18          8.4590    -2.4700    -1.3990 h1         1 48U       0.056700
     47 H19          9.0830     1.0730     6.2530 ha         1 48U       0.156000
     48 S1          11.4340    -0.0750     1.5610 sy         1 48U       1.409800
     49 H7           7.5290     2.9560     6.9660 ha         1 48U       0.159000
@<TRIPOS>BOND
     1     8     6 1
     2    10     9 2
     3     9     6 1
     4     9    11 1
     5     6     1 1
     6    17    11 ar
     7    17    16 ar
     8    11    12 ar
     9    16    15 ar
    10    12    13 ar
    11    15    13 ar
    12    15    18 1
    13    13    14 1
    14    18    19 1
    15    18    23 1
    16    20    19 2
    17    19    21 1
    18    23    22 1
    19    22    21 1
    20     4    21 1
    21     4    48 1
    22    24    48 2
    23    48     3 1
    24    48    25 2
    25     3     2 2
    26    26     7 1
    27    26    27 1
    28     2     7 1
    29     7    29 2
    30    28    27 1
    31    27     5 2
    32    29     5 1
    33     1    30 1
    34     1    31 1
    35     1    32 1
    36     2    33 1
    37     3    34 1
    38     4    35 1
    39     5    49 1
    40     8    36 1
    41     8    37 1
    42     8    38 1
    43    12    39 1
    44    16    40 1
    45    17    41 1
    46    21    42 1
    47    22    43 1
    48    22    44 1
    49    23    45 1
    50    23    46 1
    51    29    47 1
@<TRIPOS>SUBSTRUCTURE
     1 48U         1 TEMP              0 ****  ****    0 ROOT
