@<TRIPOS>MOLECULE
48U
   51    52     1     0     0
SMALL
bcc


@<TRIPOS>ATOM
      1 C8         -0.6230   -1.8650   -2.2930 c3        1 48U      0.082600
      2 C5         12.0920    1.0490    4.2870 ce        1 48U      0.296800
      3 C6         11.7620    1.5040    3.0120 c2        1 48U     -0.868300
      4 N1          9.3950    0.1220    1.6510 n3        1 48U     -0.983800
      5 C2         12.5550    2.3340    7.6760 cc        1 48U     -0.178000
      6 N3          0.2260   -0.8610   -1.6010 n4        1 48U     -0.590200
      7 C4         12.1700    1.8370    5.4230 cc        1 48U     -0.257900
      8 C7         -0.5840    0.2990   -1.1470 c3        1 48U      0.082600
      9 C28         1.3420   -0.3780   -2.5280 c         1 48U      0.573700
     10 O4          0.9900   -0.0460   -3.6510 o         1 48U     -0.411100
     11 C27         2.7020   -0.3920   -1.9890 ca        1 48U     -0.203600
     12 C26         2.9940   -0.2310   -0.6300 ca        1 48U     -0.114000
     13 C22         4.3230   -0.2140   -0.1880 ca        1 48U      0.115900
     14 F1          4.5560   -0.0980    1.1380 f         1 48U     -0.095900
     15 C15         5.4070   -0.3220   -1.1240 ca        1 48U      0.120600
     16 C21         5.0720   -0.5010   -2.4870 ca        1 48U     -0.158000
     17 C24         3.7520   -0.5280   -2.9120 ca        1 48U     -0.026000
     18 N2          6.7410   -0.2760   -0.7210 n         1 48U     -0.381000
     19 C50         7.2700    0.4610    0.3510 c         1 48U      0.674500
     20 O3          6.6340    1.1090    1.1830 o         1 48U     -0.557500
     21 C12         8.8180    0.3500    0.3360 c3        1 48U      0.068500
     22 C13         9.1140   -0.7250   -0.7290 c3        1 48U     -0.102400
     23 C14         7.8020   -0.8860   -1.5200 c3        1 48U      0.083000
     24 O2         11.6140    1.4480    0.5500 o         1 48U     -0.456400
     25 O1         12.1110   -0.5680    1.7160 o         1 48U     -0.456400
     26 S2         11.8970    3.5050    5.5130 ss        1 48U      0.228200
     27 C1         12.2200    3.5960    7.1280 cd        1 48U      0.043300
     28 CL1        12.1670    4.9890    8.0210 cl        1 48U      0.087600
     29 C3         12.5290    1.3320    6.7100 cd        1 48U     -0.008000
     30 H1         -1.0570   -1.4080   -3.2250 hx        1 48U      0.111533
     31 H2         -1.4540   -2.1860   -1.6090 hx        1 48U      0.111533
     32 H3          0.0060   -2.7520   -2.5700 hx        1 48U      0.111533
     33 H4         12.3270   -0.0340    4.4110 ha        1 48U      0.164000
     34 H5         11.5210    2.5950    2.9810 h4        1 48U      0.230000
     35 H6          8.8770    0.6520    2.3370 hn        1 48U      0.403800
     36 H8         -1.0210    0.8190   -2.0430 hx        1 48U      0.111533
     37 H9         -1.4150   -0.0600   -0.4810 hx        1 48U      0.111533
     38 H10         0.0740    1.0120   -0.5810 hx        1 48U      0.111533
     39 H11         2.2080   -0.0910    0.1300 ha        1 48U      0.151000
     40 H12         5.8670   -0.6100   -3.2450 ha        1 48U      0.173000
     41 H13         3.5260   -0.6420   -3.9880 ha        1 48U      0.179000
     42 H14         9.2070    1.3530   -0.0270 h1        1 48U      0.128700
     43 H15         9.9390   -0.3900   -1.4060 hc        1 48U      0.090200
     44 H16         9.4120   -1.7040   -0.2750 hc        1 48U      0.090200
     45 H17         7.5660   -1.9700   -1.6960 h1        1 48U      0.077200
     46 H18         7.8870   -0.3670   -2.5150 h1        1 48U      0.077200
     47 H19        12.7590    0.2780    6.9050 ha        1 48U      0.188000
     48 H121        9.3480   -0.8550    1.8950 hn        1 48U      0.403800
     49 H31         0.6560   -1.3080   -0.7820 hn        1 48U      0.452800
     50 S1         11.7520    0.7460    1.7090 s4        1 48U      1.703100
     51 H7         12.8070    2.1780    8.7320 ha        1 48U      0.208000
@<TRIPOS>BOND
     1    1    6 1   
     2    1   30 1   
     3    1   31 1   
     4    1   32 1   
     5    2    3 2   
     6    2    7 1   
     7    2   33 1   
     8    3   34 1   
     9    3   50 1   
    10    4   21 1   
    11    4   35 1   
    12    4   48 1   
    13    5   27 2   
    14    5   29 1   
    15    5   51 1   
    16    6    8 1   
    17    6    9 1   
    18    6   49 1   
    19    7   26 1   
    20    7   29 2   
    21    8   36 1   
    22    8   37 1   
    23    8   38 1   
    24    9   10 2   
    25    9   11 1   
    26   11   12 ar  
    27   11   17 ar  
    28   12   13 ar  
    29   12   39 1   
    30   13   14 1   
    31   13   15 ar  
    32   15   16 ar  
    33   15   18 1   
    34   16   17 ar  
    35   16   40 1   
    36   17   41 1   
    37   18   19 1   
    38   18   23 1   
    39   19   20 2   
    40   19   21 1   
    41   21   22 1   
    42   21   42 1   
    43   22   23 1   
    44   22   43 1   
    45   22   44 1   
    46   23   45 1   
    47   23   46 1   
    48   24   50 1   
    49   25   50 1   
    50   26   27 1   
    51   27   28 1   
    52   29   47 1   
@<TRIPOS>SUBSTRUCTURE
     1 48U         1 TEMP              0 ****  ****    0 ROOT
