@<TRIPOS>MOLECULE
molecule
   61    64     1     0     0
SMALL
bcc


@<TRIPOS>ATOM
      1 C1           0.0000     0.0000     0.0000 c3         1 48W      -0.101100
      2 C2           1.5300     0.0000     0.0000 c3         1 48W       0.063700
      3 N3           2.0190    -1.1960    -0.6910 n          1 48W      -0.493800
      4 C4           2.8660    -1.1730    -1.8880 c3         1 48W       0.098000
      5 C5           2.7610    -2.5900    -2.4950 c3         1 48W      -0.099400
      6 C6           2.4040    -3.4390    -1.2520 c3         1 48W       0.161500
      7 N7           1.4710    -4.5090    -1.6140 n7         1 48W      -0.895100
      8 S8           1.5660    -5.9800    -0.8620 sy         1 48W       1.425200
      9 O9           0.5190    -6.7760    -1.4000 o          1 48W      -0.639300
     10 O10          2.9330    -6.3640    -0.9040 o          1 48W      -0.639300
     11 C11          1.1740    -5.7250     0.8370 ca         1 48W      -0.291500
     12 C12          2.1920    -5.4200     1.7380 ca         1 48W      -0.036000
     13 C13          1.9240    -5.2160     3.0560 ca         1 48W      -0.116000
     14 C14          0.6000    -5.3140     3.5190 ca         1 48W       0.019000
     15 C15          0.2830    -5.1100     4.8730 ca         1 48W      -0.121000
     16 C16         -1.0110    -5.2120     5.2850 ca         1 48W       0.047400
     17 Cl1         -1.3990    -4.9590     6.9580 cl         1 48W      -0.112400
     18 C18         -2.0300    -5.5160     4.3820 ca         1 48W      -0.135000
     19 C19         -1.7600    -5.7220     3.0640 ca         1 48W      -0.088000
     20 C20         -0.4370    -5.6240     2.6030 ca         1 48W      -0.061000
     21 C21         -0.1200    -5.8230     1.2470 ca         1 48W       0.015000
     22 C22          1.7530    -2.4570    -0.3050 c          1 48W       0.685500
     23 O23          1.0860    -2.7610     0.6610 o          1 48W      -0.581500
     24 C24          2.0320     0.0000     1.4200 c          1 48W       0.641100
     25 O25          2.3700    -1.0400     1.9440 o          1 48W      -0.570100
     26 N26          2.1050     1.1560     2.1100 n          1 48W      -0.497800
     27 C27          2.6990     1.1430     3.4430 c3         1 48W       0.083000
     28 C28          3.9710     1.9980     3.4510 c3         1 48W       0.082000
     29 N29          3.5920     3.4100     3.6010 n          1 48W      -0.492800
     30 C30          3.8510     4.1010     4.8660 c3         1 48W       0.103300
     31 C31          3.0130     4.0690     2.5930 c          1 48W       0.695500
     32 O32          2.7120     5.2360     2.7320 o          1 48W      -0.642500
     33 C33          2.7320     3.3710     1.2810 c3         1 48W      -0.178400
     34 C34          1.5900     2.3760     1.4910 c3         1 48W       0.102000
     35 H1          -0.3610     0.9510    -0.3730 hc         1 48W       0.054367
     36 H2          -0.3610    -0.7980    -0.6370 hc         1 48W       0.054367
     37 H3          -0.3610    -0.1520     1.0100 hc         1 48W       0.054367
     38 H4           1.8910     0.8850    -0.5110 h1         1 48W       0.066700
     39 H5           3.8920    -0.9580    -1.6160 h1         1 48W       0.048200
     40 H6           2.4970    -0.4370    -2.5920 h1         1 48W       0.048200
     41 H7           3.7110    -2.9010    -2.9140 hc         1 48W       0.067700
     42 H8           1.9700    -2.6360    -3.2340 hc         1 48W       0.067700
     43 H9           3.3020    -3.8490    -0.8080 h1         1 48W       0.104700
     44 H10          0.7970    -4.3610    -2.3390 hn         1 48W       0.456800
     45 H11          3.2140    -5.3480     1.3840 ha         1 48W       0.142000
     46 H12          2.7250    -4.9810     3.7450 ha         1 48W       0.139000
     47 H13          1.0740    -4.9810     5.6010 ha         1 48W       0.148000
     48 H14         -3.0510    -5.5920     4.7360 ha         1 48W       0.143000
     49 H15         -2.5620    -5.9570     2.3750 ha         1 48W       0.140000
     50 H16         -0.8840    -6.1590     0.5560 ha         1 48W       0.150000
     51 H17          2.9500     0.1240     3.7140 h1         1 48W       0.077200
     52 H18          1.9910     1.5470     4.1560 h1         1 48W       0.077200
     53 H19          4.6010     1.7020     4.2820 h1         1 48W       0.061200
     54 H20          4.5040     1.8630     2.5180 h1         1 48W       0.061200
     55 H21          4.5290     4.9280     4.6940 h1         1 48W       0.044700
     56 H22          2.9180     4.4770     5.2690 h1         1 48W       0.044700
     57 H23          4.2960     3.4090     5.5710 h1         1 48W       0.044700
     58 H24          2.4440     4.1030     0.5360 hc         1 48W       0.074700
     59 H25          3.6190     2.8420     0.9550 hc         1 48W       0.074700
     60 H26          1.1460     2.1330     0.5330 h1         1 48W       0.062700
     61 H27          0.8430     2.8190     2.1380 h1         1 48W       0.062700
@<TRIPOS>BOND
     1    33    34 1
     2    33    31 1
     3    34    26 1
     4    31    32 2
     5    31    29 1
     6    29    28 1
     7    29    30 1
     8    28    27 1
     9    26    27 1
    10    26    24 1
    11    25    24 2
    12    24     2 1
    13     2     1 1
    14     2     3 1
    15     3     4 1
    16     3    22 1
    17     4     5 1
    18    23    22 2
    19    22     6 1
    20     5     6 1
    21     7     6 1
    22     7     8 1
    23    12    13 ar
    24    12    11 ar
    25    10     8 2
    26    13    14 ar
    27     8    11 1
    28     8     9 2
    29    11    21 ar
    30    14    15 ar
    31    14    20 ar
    32    15    16 ar
    33    21    20 ar
    34    20    19 ar
    35    16    17 1
    36    16    18 ar
    37    19    18 ar
    38     1    35 1
    39     1    36 1
    40     1    37 1
    41     2    38 1
    42     4    39 1
    43     4    40 1
    44     5    41 1
    45     5    42 1
    46     6    43 1
    47     7    44 1
    48    12    45 1
    49    13    46 1
    50    15    47 1
    51    18    48 1
    52    19    49 1
    53    21    50 1
    54    27    51 1
    55    27    52 1
    56    28    53 1
    57    28    54 1
    58    30    55 1
    59    30    56 1
    60    30    57 1
    61    33    58 1
    62    33    59 1
    63    34    60 1
    64    34    61 1
@<TRIPOS>SUBSTRUCTURE
     1 48W         1 TEMP              0 ****  ****    0 ROOT
