@<TRIPOS>MOLECULE
48W
   61    64     1     0     0
SMALL
bcc


@<TRIPOS>ATOM
      1 C1           0.0000     0.0000     0.0000 c3         1 48W      -0.009100
      2 C2           1.5300     0.0000     0.0000 c3         1 48W      -0.019300
      3 N3           2.0190    -1.1960    -0.6910 n          1 48W      -0.162800
      4 C4           2.8660    -1.1730    -1.8880 c3         1 48W       0.056000
      5 C5           2.7610    -2.5900    -2.4950 c3         1 48W      -0.039400
      6 C6           2.4040    -3.4390    -1.2520 c3         1 48W       0.114500
      7 N7           1.4710    -4.5090    -1.6140 n7         1 48W      -0.555100
      8 S8           1.5660    -5.9800    -0.8620 sy         1 48W       1.042200
      9 O9           0.5190    -6.7760    -1.4000 o          1 48W      -0.591800
     10 O10          2.9330    -6.3640    -0.9040 o          1 48W      -0.591800
     11 C11          1.1740    -5.7250     0.8370 ca         1 48W      -0.134500
     12 C12          2.1920    -5.4200     1.7380 ca         1 48W      -0.004000
     13 C13          1.9240    -5.2160     3.0560 ca         1 48W      -0.098000
     14 C14          0.6000    -5.3140     3.5190 ca         1 48W       0.019000
     15 C15          0.2830    -5.1100     4.8730 ca         1 48W      -0.099000
     16 C16         -1.0110    -5.2120     5.2850 ca         1 48W      -0.014600
     17 Cl1         -1.3990    -4.9590     6.9580 cl         1 48W      -0.034400
     18 C18         -2.0300    -5.5160     4.3820 ca         1 48W      -0.116000
     19 C19         -1.7600    -5.7220     3.0640 ca         1 48W      -0.055000
     20 C20         -0.4370    -5.6240     2.6030 ca         1 48W      -0.071000
     21 C21         -0.1200    -5.8230     1.2470 ca         1 48W       0.048000
     22 C22          1.7530    -2.4570    -0.3050 c          1 48W       0.614500
     23 O23          1.0860    -2.7610     0.6610 o          1 48W      -0.625500
     24 C24          2.0320     0.0000     1.4200 c          1 48W       0.566100
     25 O25          2.3700    -1.0400     1.9440 o          1 48W      -0.605100
     26 N26          2.1050     1.1560     2.1100 n          1 48W      -0.160800
     27 C27          2.6990     1.1430     3.4430 c3         1 48W       0.024000
     28 C28          3.9710     1.9980     3.4510 c3         1 48W       0.030000
     29 N29          3.5920     3.4100     3.6010 n          1 48W      -0.154800
     30 C30          3.8510     4.1010     4.8660 c3         1 48W       0.094300
     31 C31          3.0130     4.0690     2.5930 c          1 48W       0.616500
     32 O32          2.7120     5.2360     2.7320 o          1 48W      -0.677500
     33 C33          2.7320     3.3710     1.2810 c3         1 48W      -0.122400
     34 C34          1.5900     2.3760     1.4910 c3         1 48W       0.038000
     35 H1          -0.3610     0.9510    -0.3730 hc         1 48W       0.020700
     36 H2          -0.3610    -0.7980    -0.6370 hc         1 48W       0.020700
     37 H3          -0.3610    -0.1520     1.0100 hc         1 48W       0.020700
     38 H4           1.8910     0.8850    -0.5110 h1         1 48W       0.041700
     39 H5           3.8920    -0.9580    -1.6160 h1         1 48W       0.015200
     40 H6           2.4970    -0.4370    -2.5920 h1         1 48W       0.015200
     41 H7           3.7110    -2.9010    -2.9140 hc         1 48W       0.033700
     42 H8           1.9700    -2.6360    -3.2340 hc         1 48W       0.033700
     43 H9           3.3020    -3.8490    -0.8080 h1         1 48W       0.072700
     44 H10          0.7970    -4.3610    -2.3390 hn         1 48W       0.347800
     45 H11          3.2140    -5.3480     1.3840 ha         1 48W       0.116000
     46 H12          2.7250    -4.9810     3.7450 ha         1 48W       0.110000
     47 H13          1.0740    -4.9810     5.6010 ha         1 48W       0.119000
     48 H14         -3.0510    -5.5920     4.7360 ha         1 48W       0.113000
     49 H15         -2.5620    -5.9570     2.3750 ha         1 48W       0.108000
     50 H16         -0.8840    -6.1590     0.5560 ha         1 48W       0.121000
     51 H17          2.9500     0.1240     3.7140 h1         1 48W       0.049700
     52 H18          1.9910     1.5470     4.1560 h1         1 48W       0.049700
     53 H19          4.6010     1.7020     4.2820 h1         1 48W       0.033700
     54 H20          4.5040     1.8630     2.5180 h1         1 48W       0.033700
     55 H21          4.5290     4.9280     4.6940 h1         1 48W       0.013033
     56 H22          2.9180     4.4770     5.2690 h1         1 48W       0.013033
     57 H23          4.2960     3.4090     5.5710 h1         1 48W       0.013033
     58 H24          2.4440     4.1030     0.5360 hc         1 48W       0.043200
     59 H25          3.6190     2.8420     0.9550 hc         1 48W       0.043200
     60 H26          1.1460     2.1330     0.5330 h1         1 48W       0.038700
     61 H27          0.8430     2.8190     2.1380 h1         1 48W       0.038700
@<TRIPOS>BOND
     1     1     2 1   
     2     1    35 1   
     3     1    36 1   
     4     1    37 1   
     5     2     3 1   
     6     2    24 1   
     7     2    38 1   
     8     3     4 1   
     9     3    22 1   
    10     4     5 1   
    11     4    39 1   
    12     4    40 1   
    13     5     6 1   
    14     5    41 1   
    15     5    42 1   
    16     6     7 1   
    17     6    22 1   
    18     6    43 1   
    19     7     8 1   
    20     7    44 1   
    21     8     9 2   
    22     8    10 2   
    23     8    11 1   
    24    11    12 ar  
    25    11    21 ar  
    26    12    13 ar  
    27    12    45 1   
    28    13    14 ar  
    29    13    46 1   
    30    14    15 ar  
    31    14    20 ar  
    32    15    16 ar  
    33    15    47 1   
    34    16    17 1   
    35    16    18 ar  
    36    18    19 ar  
    37    18    48 1   
    38    19    20 ar  
    39    19    49 1   
    40    20    21 ar  
    41    21    50 1   
    42    22    23 2   
    43    24    25 2   
    44    24    26 1   
    45    26    27 1   
    46    26    34 1   
    47    27    28 1   
    48    27    51 1   
    49    27    52 1   
    50    28    29 1   
    51    28    53 1   
    52    28    54 1   
    53    29    30 1   
    54    29    31 1   
    55    30    55 1   
    56    30    56 1   
    57    30    57 1   
    58    31    32 2   
    59    31    33 1   
    60    33    34 1   
    61    33    58 1   
    62    33    59 1   
    63    34    60 1   
    64    34    61 1   
@<TRIPOS>SUBSTRUCTURE
     1 48W         1 TEMP              0 ****  ****    0 ROOT
