@<TRIPOS>MOLECULE
48X
   14    13     1     0     0
SMALL
bcc


@<TRIPOS>ATOM
      1 P           0.1430   -0.0930   -0.0420 p5        1 48X      1.328900
      2 O1         -3.5450   -3.3020   -3.2450 o         1 48X     -0.913300
      3 O2         -4.7470   -3.2260   -1.4000 o         1 48X     -0.913300
      4 O4P         1.6180   -0.0800   -0.3790 o         1 48X     -0.953167
      5 O2P        -0.1640   -0.4620    1.3900 o         1 48X     -0.953167
      6 O3P        -0.6340    1.0890   -0.5720 o         1 48X     -0.953167
      7 O1P        -0.4160   -1.4260   -0.9670 os        1 48X     -0.596200
      8 C3         -1.7340   -1.4250   -1.3820 c3        1 48X      0.239400
      9 C2         -2.3720   -2.8040   -1.1680 c3        1 48X     -0.188400
     10 C1         -3.6210   -3.0970   -1.9890 c         1 48X      0.900600
     11 H4         -1.7890   -1.1970   -2.4890 h1        1 48X     -0.012800
     12 H5         -2.3170   -0.6350   -0.8320 h1        1 48X     -0.012800
     13 H6         -1.6070   -3.5820   -1.4280 hc        1 48X      0.013200
     14 H7         -2.6180   -2.9210   -0.0820 hc        1 48X      0.013200
@<TRIPOS>BOND
     1    1    4 1   
     2    1    5 1   
     3    1    6 1   
     4    1    7 1   
     5    2   10 1   
     6    3   10 1   
     7    7    8 1   
     8    8    9 1   
     9    8   11 1   
    10    8   12 1   
    11    9   10 1   
    12    9   13 1   
    13    9   14 1   
@<TRIPOS>SUBSTRUCTURE
     1 48X         1 TEMP              0 ****  ****    0 ROOT
