@<TRIPOS>MOLECULE
molecule
   14    13     1     0     0
SMALL
bcc


@<TRIPOS>ATOM
      1 P            0.0000     0.0000     0.0000 p5         1 48X       1.229900
      2 O1          -3.9230    -4.2570    -2.6600 o          1 48X      -0.899300
      3 O2          -4.3710    -2.3340    -1.6660 o          1 48X      -0.899300
      4 O4P          1.6100     0.0000     0.0000 o          1 48X      -0.940500
      5 O2P         -0.5360     0.0000     1.5180 o          1 48X      -0.940500
      6 O3P         -0.4930     1.2080    -0.6980 o          1 48X      -0.940500
      7 O1P         -0.5370    -1.3150    -0.7590 os         1 48X      -0.616200
      8 C3          -1.9220    -1.5540    -1.0170 c3         1 48X       0.230400
      9 C2          -2.0820    -2.8870    -1.7490 c3         1 48X      -0.183400
     10 C1          -3.5420    -3.1390    -2.0210 c          1 48X       0.892600
     11 H4          -2.4630    -1.5900    -0.0790 h1         1 48X       0.013700
     12 H5          -2.3170    -0.7550    -1.6320 h1         1 48X       0.013700
     13 H6          -1.6860    -3.6870    -1.1340 hc         1 48X       0.019700
     14 H7          -1.5410    -2.8510    -2.6870 hc         1 48X       0.019700
@<TRIPOS>BOND
     1     6     1 1   
     2     4     1 1   
     3     1     5 1   
     4     1     7 1   
     5     7     8 1   
     6     8     9 1   
     7     9    10 1   
     8    10     3 1   
     9    10     2 1   
    10     8    11 1   
    11     8    12 1   
    12     9    13 1   
    13     9    14 1   
@<TRIPOS>SUBSTRUCTURE
     1 48X         1 TEMP              0 ****  ****    0 ROOT
