@<TRIPOS>MOLECULE
molecule
   21    20     1     0     0
SMALL
bcc


@<TRIPOS>ATOM
      1 OAB          0.0000     0.0000     0.0000 o          1 48Y      -0.882800
      2 CAK          1.3420     0.0000     0.0000 c          1 48Y       0.895600
      3 OAF          1.9460     0.0000     1.0470 o          1 48Y      -0.882800
      4 CAM          2.0970    -0.0000    -1.3050 c3         1 48Y       0.070100
      5 OAD          3.4960    -0.1190    -1.0460 oh         1 48Y      -0.564800
      6 CAN          1.8240     1.3070    -2.0520 c3         1 48Y      -0.155700
      7 CAL          2.3890     2.4610    -1.2650 c          1 48Y       0.907600
      8 OAG          2.2670     3.7140    -1.7310 o          1 48Y      -0.867800
      9 OAC          2.9510     2.2590    -0.2150 o          1 48Y      -0.867800
     10 CAI          2.4870     1.2550    -3.4300 c3         1 48Y      -0.034400
     11 CAH          2.1120     2.5080    -4.2230 c3         1 48Y      -0.187400
     12 CAJ          2.7650     2.4560    -5.5810 c          1 48Y       0.893600
     13 OAE          3.4600     1.5150    -5.8810 o          1 48Y      -0.913800
     14 OAA          2.5750     3.4570    -6.4550 o          1 48Y      -0.913800
     15 H2           1.7700    -0.8370    -1.9100 h1         1 48Y      -0.028300
     16 H3           3.7350    -1.0300    -1.0190 ho         1 48Y       0.327000
     17 H4           0.7550     1.4390    -2.1700 hc         1 48Y       0.054700
     18 H6           2.1460     0.3750    -3.9610 hc         1 48Y       0.013200
     19 H7           3.5630     1.2110    -3.3110 hc         1 48Y       0.013200
     20 H8           1.0360     2.5520    -4.3410 hc         1 48Y       0.061700
     21 H9           2.4530     3.3880    -3.6920 hc         1 48Y       0.061700
@<TRIPOS>BOND
     1    13    12 1
     2    14    12 1
     3    12    11 1
     4    11    10 1
     5    10     6 1
     6     5     4 1
     7     9     7 1
     8     4     6 1
     9     4     2 1
    10     6     7 1
    11     7     8 1
    12     2     3 1
    13     2     1 1
    14     4    15 1
    15     5    16 1
    16     6    17 1
    17    10    18 1
    18    10    19 1
    19    11    20 1
    20    11    21 1
@<TRIPOS>SUBSTRUCTURE
     1 48Y         1 TEMP              0 ****  ****    0 ROOT
