@<TRIPOS>MOLECULE
490
   55    59     1     0     0
SMALL
bcc


@<TRIPOS>ATOM
      1 C4           0.0000     0.0000     0.0000 cc         1 490      -0.247300
      2 C7          -1.7990     0.0070     1.7460 c3         1 490       0.023600
      3 C8           2.2410    -0.0000    -1.2000 cd         1 490      -0.086200
      4 C10          3.8520     0.0380    -3.4170 c          1 490       0.581700
      5 C17          5.4520     2.8100     2.5560 ca         1 490      -0.182500
      6 C20          6.7480     2.9930     2.9920 ca         1 490      -0.036000
      7 C21          5.7510     0.4230     2.6570 ca         1 490      -0.182500
      8 C22          8.9460     2.0820     3.7330 cp         1 490       0.040000
      9 C24         11.1030     3.1220     3.4850 ca         1 490      -0.086000
     10 C26         10.7360     1.5950     5.2990 ca         1 490      -0.254200
     11 C25          9.8020     2.9380     3.0500 ca         1 490      -0.119000
     12 C19          7.0460     0.6000     3.0970 ca         1 490      -0.036000
     13 C23         11.5700     2.4600     4.6020 ca         1 490      -0.095000
     14 C29          9.7130     0.1660     6.6350 cc         1 490       0.254700
     15 C18          7.5540     1.8880     3.2650 cp         1 490      -0.078000
     16 C3           1.3640     0.0000     0.0000 cd         1 490      -0.243100
     17 C27          9.4140     1.3970     4.8710 ca         1 490       0.070400
     18 C16          4.9510     1.5260     2.3900 ca         1 490       0.153100
     19 C2           1.7890     0.0000     1.3420 cd         1 490       0.358600
     20 C12          2.9150    -1.1780    -1.5830 cd         1 490      -0.016000
     21 C11          3.7140    -1.1570    -2.6870 cc         1 490      -0.240200
     22 C9           2.3960     1.1370    -1.9350 cc         1 490      -0.129400
     23 C1           3.2200    -0.0000     1.8170 c3         1 490       0.192100
     24 N28          8.8460     0.5160     5.7290 nd         1 490      -0.518100
     25 N6           0.7280     0.0010     2.1040 nc         1 490      -0.622800
     26 N5          -0.4080     0.0010     1.2860 na         1 490       0.493400
     27 N30         10.8960     0.8020     6.4180 na         1 490       0.292700
     28 N13          3.1940     1.1470    -3.0320 n          1 490       0.124000
     29 O32          4.5690     0.0670    -4.4040 o          1 490      -0.707500
     30 O15          3.6720     1.3470     1.9660 os         1 490      -0.302900
     31 H1          -0.6370    -0.1080    -0.8700 h4         1 490       0.149000
     32 H2          -1.8210     0.0550     2.8280 h1         1 490       0.022367
     33 H3          -2.3110     0.8690     1.3360 h1         1 490       0.022367
     34 H4          -2.2930    -0.8980     1.4140 h1         1 490       0.022367
     35 H5           4.8250     3.6670     2.3450 ha         1 490       0.116500
     36 H6           7.1400     3.9950     3.1220 ha         1 490       0.109500
     37 H7           5.3560    -0.5770     2.5260 ha         1 490       0.116500
     38 H8          11.7600     3.7910     2.9440 ha         1 490       0.102000
     39 H9           9.4480     3.4640     2.1710 ha         1 490       0.112000
     40 H10          7.6690    -0.2600     3.3070 ha         1 490       0.109500
     41 H11         12.5900     2.6110     4.9330 ha         1 490       0.099000
     42 H12          9.5200    -0.5290     7.4440 h5         1 490       0.026800
     43 H13          2.7970    -2.0890    -1.0090 ha         1 490       0.108000
     44 H14          4.2420    -2.0510    -2.9970 ha         1 490       0.136000
     45 H15          1.8750     2.0410    -1.6420 h4         1 490       0.134000
     46 H16         12.9190     0.2980     6.6000 h1         1 490       0.019033
     47 H17         12.3860     1.6360     7.6270 h1         1 490       0.019033
     48 H18         11.9350    -0.0250     8.0350 h1         1 490       0.019033
     49 H19          4.3880     2.6860    -3.7970 h1         1 490       0.024700
     50 H20          3.0290     2.2120    -4.8260 h1         1 490       0.024700
     51 H21          2.7420     3.1630    -3.3620 h1         1 490       0.024700
     52 H22          3.8410    -0.5110     1.0910 h1         1 490       0.013200
     53 H23          3.2840    -0.5110     2.7700 h1         1 490       0.013200
     54 C14          3.3480     2.3830    -3.8050 c3         1 490       0.049300
     55 C31         12.1130     0.6690     7.2220 c3         1 490       0.005600
@<TRIPOS>BOND
     1     1    16 2   
     2     1    26 1   
     3     1    31 1   
     4     2    26 1   
     5     2    32 1   
     6     2    33 1   
     7     2    34 1   
     8     3    16 1   
     9     3    20 1   
    10     3    22 2   
    11     4    21 1   
    12     4    28 1   
    13     4    29 2   
    14     5     6 ar  
    15     5    18 ar  
    16     5    35 1   
    17     6    15 ar  
    18     6    36 1   
    19     7    12 ar  
    20     7    18 ar  
    21     7    37 1   
    22     8    11 ar  
    23     8    15 1   
    24     8    17 ar  
    25     9    11 ar  
    26     9    13 ar  
    27     9    38 1   
    28    10    13 ar  
    29    10    17 ar  
    30    10    27 1   
    31    11    39 1   
    32    12    15 ar  
    33    12    40 1   
    34    13    41 1   
    35    14    24 2   
    36    14    27 1   
    37    14    42 1   
    38    16    19 1   
    39    17    24 1   
    40    18    30 1   
    41    19    23 1   
    42    19    25 2   
    43    20    21 2   
    44    20    43 1   
    45    21    44 1   
    46    22    28 1   
    47    22    45 1   
    48    23    30 1   
    49    23    52 1   
    50    23    53 1   
    51    25    26 1   
    52    27    55 1   
    53    28    54 1   
    54    46    55 1   
    55    47    55 1   
    56    48    55 1   
    57    49    54 1   
    58    50    54 1   
    59    51    54 1   
@<TRIPOS>SUBSTRUCTURE
     1 490         1 TEMP              0 ****  ****    0 ROOT
