@<TRIPOS>MOLECULE
491
   41    41     1     0     0
SMALL
bcc


@<TRIPOS>ATOM
      1 C01          0.0000     0.0000     0.0000 c3         1 491      -0.022100
      2 C02          1.5300     0.0000     0.0000 c3         1 491       0.068100
      3 C03          2.0320    -1.2310    -0.7100 c          1 491       0.983600
      4 O04          1.7930    -1.3940    -2.0200 o          1 491      -0.910800
      5 O05          2.6490    -2.0710    -0.0990 o          1 491      -0.910800
      6 O06          2.0060     0.0000     1.3480 os         1 491      -0.388600
      7 C07          2.1690     1.3050     1.9070 c3         1 491       0.138100
      8 C08          3.6470     1.7060     1.8470 c3         1 491      -0.062300
      9 C09          3.8250     3.0700     2.5180 c3         1 491       0.439900
     10 O10          3.3520     3.0020     3.8650 os         1 491      -0.415600
     11 C11          1.9650     2.6780     3.9800 c3         1 491       0.155100
     12 C12          1.7100     1.2980     3.3680 c3         1 491       0.155100
     13 O13          0.3150     0.9970     3.4310 oh         1 491      -0.586800
     14 C14          1.5670     2.6620     5.4580 c3         1 491       0.217400
     15 O15          1.6940     3.9770     6.0000 oh         1 491      -0.528800
     16 O16          3.0790     4.0550     1.8000 os         1 491      -0.480200
     17 P17          3.5180     5.6020     1.7200 p5         1 491       0.666900
     18 O18          4.9130     5.7230     0.9270 o          1 491      -0.753833
     19 O19          2.3850     6.4420     0.9460 o          1 491      -0.753833
     20 O20          3.6820     6.1400     3.0900 o          1 491      -0.753833
     21 N21          4.0760     1.7880     0.4480 ns         1 491      -0.093900
     22 C22          5.3690     1.5890     0.1270 c          1 491       0.588100
     23 O23          6.1790     1.3420     0.9960 o          1 491      -0.724100
     24 C24          5.8100     1.6740    -1.3110 c3         1 491      -0.068100
     25 H1          -0.3610     1.0190    -0.0650 hc         1 491      -0.003300
     26 H2          -0.3610    -0.5660    -0.8500 hc         1 491      -0.003300
     27 H3          -0.3610    -0.4540     0.9150 hc         1 491      -0.003300
     28 H4           1.8900     0.8840    -0.5110 h1         1 491       0.016700
     29 H6           1.5790     2.0210     1.3470 h1         1 491       0.056700
     30 H7           4.2420     0.9670     2.3700 h1         1 491       0.044700
     31 H8           4.8750     3.3350     2.5200 h2         1 491       0.048700
     32 H9           1.3780     3.4190     3.4520 h1         1 491       0.073700
     33 H10          2.2710     0.5520     3.9170 h1         1 491      -0.007300
     34 H11          0.1720     0.2900     4.0380 ho         1 491       0.358000
     35 H12          0.5390     2.3310     5.5510 h1         1 491      -0.040300
     36 H13          2.2150     1.9840     5.9990 h1         1 491      -0.040300
     37 H14          1.3790     3.9830     6.8880 ho         1 491       0.332000
     38 H17          3.4060     1.9840    -0.2690 hn         1 491       0.179500
     39 H18          6.8080     2.0950    -1.3580 hc         1 491       0.008700
     40 H19          5.1250     2.3070    -1.8630 hc         1 491       0.008700
     41 H20          5.8160     0.6820    -1.7470 hc         1 491       0.008700
@<TRIPOS>BOND
     1     1     2 1   
     2     1    25 1   
     3     1    26 1   
     4     1    27 1   
     5     2     3 1   
     6     2     6 1   
     7     2    28 1   
     8     3     4 1   
     9     3     5 1   
    10     6     7 1   
    11     7     8 1   
    12     7    12 1   
    13     7    29 1   
    14     8     9 1   
    15     8    21 1   
    16     8    30 1   
    17     9    10 1   
    18     9    16 1   
    19     9    31 1   
    20    10    11 1   
    21    11    12 1   
    22    11    14 1   
    23    11    32 1   
    24    12    13 1   
    25    12    33 1   
    26    13    34 1   
    27    14    15 1   
    28    14    35 1   
    29    14    36 1   
    30    15    37 1   
    31    16    17 1   
    32    17    18 1   
    33    17    19 1   
    34    17    20 1   
    35    21    22 1   
    36    21    38 1   
    37    22    23 2   
    38    22    24 1   
    39    24    39 1   
    40    24    40 1   
    41    24    41 1   
@<TRIPOS>SUBSTRUCTURE
     1 491         1 TEMP              0 ****  ****    0 ROOT
