@<TRIPOS>MOLECULE
492
   22    23     1     0     0
SMALL
bcc


@<TRIPOS>ATOM
      1 N18          0.0000     0.0000     0.0000 nz         1 492       0.063400
      2 C17          1.4690     0.0000     0.0000 c3         1 492       0.094100
      3 C8           1.9710     0.0000     1.4200 cc         1 492      -0.192400
      4 S7           2.3090     1.4380     2.3740 ss         1 492      -0.203800
      5 C6           2.7930     0.4530     3.7480 cc         1 492       0.230900
      6 C10          2.6790    -0.8530     3.4260 cd         1 492      -0.172000
      7 C9           2.2220    -1.0930     2.1470 cd         1 492      -0.010000
      8 C1           3.2520     0.9720     5.0470 cc         1 492       0.010900
      9 S2           3.7460    -0.0130     6.4180 ss         1 492      -0.218800
     10 C3           4.0780     1.4250     7.3730 cc         1 492       0.061900
     11 C4           3.8160     2.5190     6.6510 cd         1 492      -0.137000
     12 C5           3.3670     2.2790     5.3690 cd         1 492      -0.068000
     13 HN18        -0.3340     0.2170    -0.9180 hn         1 492       0.225467
     14 HN1A        -0.3340     0.6870     0.6470 hn         1 492       0.225467
     15 H17          1.8300    -0.8840    -0.5110 hx         1 492       0.081700
     16 H17A         1.8300     0.8850    -0.5110 hx         1 492       0.081700
     17 H10          2.9220    -1.6500     4.1190 ha         1 492       0.157000
     18 H9           2.0830    -2.0940     1.7580 ha         1 492       0.121000
     19 H3           4.4390     1.4250     8.3940 h4         1 492       0.161000
     20 H4           3.9510     3.5200     7.0420 ha         1 492       0.136000
     21 H5           3.1180     3.0750     4.6780 ha         1 492       0.125000
     22 H183        -0.3340    -0.8970     0.2940 hn         1 492       0.225467
@<TRIPOS>BOND
     1     1     2 1   
     2     1    13 1   
     3     1    14 1   
     4     1    22 1   
     5     2     3 1   
     6     2    15 1   
     7     2    16 1   
     8     3     4 1   
     9     3     7 2   
    10     4     5 1   
    11     5     6 2   
    12     5     8 1   
    13     6     7 1   
    14     6    17 1   
    15     7    18 1   
    16     8     9 1   
    17     8    12 2   
    18     9    10 1   
    19    10    11 2   
    20    10    19 1   
    21    11    12 1   
    22    11    20 1   
    23    12    21 1   
@<TRIPOS>SUBSTRUCTURE
     1 492         1 TEMP              0 ****  ****    0 ROOT
