@<TRIPOS>MOLECULE
molecule
   78    81     1     0     0
SMALL
bcc


@<TRIPOS>ATOM
      1 C1           0.0000     0.0000     0.0000 ca         1 493      -0.122000
      2 C2           1.3810     0.0000     0.0000 ca         1 493      -0.286000
      3 C3           2.0730     0.0000     1.2030 ca         1 493       0.192100
      4 C4           1.3760    -0.0010     2.4000 ca         1 493      -0.172500
      5 C5          -0.0060     0.0040     2.3950 ca         1 493      -0.060000
      6 C6          -0.6930    -0.0000     1.1960 ca         1 493      -0.215300
      7 C7           3.8490     0.0020    -0.1600 c3         1 493       0.000400
      8 C8           5.3540     0.0020    -0.2270 c          1 493       0.887600
      9 C9          -2.1990    -0.0010     1.1920 c3         1 493      -0.022100
     10 C10         -2.7090    -1.4440     1.1890 c3         1 493       0.062700
     11 C11         -4.2150    -1.4440     1.1860 c          1 493       0.632100
     12 N12         -4.8920    -1.4460     2.3510 ns         1 493      -0.608900
     13 N13         -2.2170    -2.1340    -0.0060 ns         1 493      -0.553900
     14 C14         -2.5390    -1.6730    -1.2310 c          1 493       0.667100
     15 C15         -2.0350    -2.3830    -2.4590 c3         1 493      -0.167100
     16 O16         -3.2370    -0.6870    -1.3420 o          1 493      -0.596100
     17 O17         -4.8190    -1.4440     0.1340 o          1 493      -0.580100
     18 C18         -6.3570    -1.4460     2.3480 c3         1 493       0.055700
     19 C19         -6.8750    -1.8630     3.7270 c3         1 493      -0.090400
     20 C20         -5.9600    -1.3460     4.8220 c3         1 493      -0.087400
     21 C21         -5.9550     0.1660     4.9530 c3         1 493      -0.105400
     22 C22         -5.3280     0.8180     3.7200 c3         1 493       0.087000
     23 N23         -6.3740     0.9980     2.6990 n          1 493      -0.471800
     24 C24         -6.8660    -0.0540     2.0390 c          1 493       0.703500
     25 C25         -6.8770     2.3420     2.4030 c3         1 493       0.157300
     26 C26         -6.0510     2.9560     1.3040 ca         1 493      -0.114300
     27 O27         -7.7230     0.1080     1.1970 o          1 493      -0.669500
     28 O28          3.4330    -0.0010     1.2060 os         1 493      -0.173900
     29 C49         -4.9300     3.7020     1.6200 ca         1 493      -0.107000
     30 C50         -4.1650     4.2640     0.6170 ca         1 493      -0.111000
     31 C51         -4.5300     4.0870    -0.7160 cp         1 493      -0.034000
     32 C52         -5.6640     3.3380    -1.0280 ca         1 493      -0.111000
     33 C53         -6.4180     2.7770    -0.0180 ca         1 493      -0.107000
     34 C58         -3.7160     4.6910    -1.7980 cp         1 493      -0.024000
     35 C59         -3.4730     3.9820    -2.9710 ca         1 493      -0.110500
     36 C60         -2.7200     4.5520    -3.9770 ca         1 493      -0.132000
     37 C61         -2.1960     5.8210    -3.8180 ca         1 493      -0.135000
     38 C62         -2.4300     6.5300    -2.6530 ca         1 493      -0.132000
     39 C63         -3.1860     5.9710    -1.6430 ca         1 493      -0.110500
     40 P71          2.2760    -0.0020     3.9750 p5         1 493       1.067000
     41 O72          2.5430     1.5150     4.4420 o          1 493      -0.904500
     42 O73          3.5700    -0.7000     3.8030 o          1 493      -0.904500
     43 O74          1.4020    -0.7620     5.0930 o          1 493      -0.904500
     44 O79          5.9740     0.0030    -1.4180 o          1 493      -0.850300
     45 O80          6.0040     0.0010     0.7910 o          1 493      -0.850300
     46 H1          -0.5410    -0.0010    -0.9390 ha         1 493       0.076000
     47 H2           1.9230     0.0010    -0.9380 ha         1 493       0.119000
     48 H5          -0.5510     0.0030     3.3310 ha         1 493       0.127000
     49 H71          3.4650     0.8870    -0.6530 h1         1 493       0.009700
     50 H72A         3.4650    -0.8820    -0.6560 h1         1 493       0.009700
     51 H91         -2.5620     0.5080     2.0760 hc         1 493       0.049200
     52 H92         -2.5580     0.5100     0.3070 hc         1 493       0.049200
     53 H10         -2.3500    -1.9560     2.0740 h1         1 493       0.076700
     54 H12         -4.3940    -1.4950     3.2180 hn         1 493       0.331500
     55 H13         -1.6440    -2.9480     0.0880 hn         1 493       0.318500
     56 H151        -1.7890    -1.6530    -3.2210 hc         1 493       0.048367
     57 H152        -2.8030    -3.0490    -2.8310 hc         1 493       0.048367
     58 H153        -1.1510    -2.9550    -2.2070 hc         1 493       0.048367
     59 H18         -6.7240    -2.1390     1.6000 h1         1 493       0.094700
     60 H191        -7.8680    -1.4550     3.8710 hc         1 493       0.044200
     61 H192        -6.9160    -2.9440     3.7790 hc         1 493       0.044200
     62 H201        -4.9500    -1.6770     4.6110 hc         1 493       0.046700
     63 H202        -6.2800    -1.7720     5.7650 hc         1 493       0.046700
     64 H211        -5.3830     0.4440     5.8300 hc         1 493       0.046700
     65 H212        -6.9740     0.5170     5.0610 hc         1 493       0.046700
     66 H221        -4.5460     0.1780     3.3290 h1         1 493       0.079200
     67 H222        -4.9160     1.7820     3.9900 h1         1 493       0.079200
     68 H251        -7.9110     2.2790     2.0850 h1         1 493       0.049200
     69 H252        -6.8090     2.9570     3.2920 h1         1 493       0.049200
     70 H49         -4.6470     3.8390     2.6570 ha         1 493       0.137000
     71 H50         -3.2860     4.8470     0.8660 ha         1 493       0.134500
     72 H52         -5.9530     3.1970    -2.0630 ha         1 493       0.134500
     73 H53         -7.2990     2.1950    -0.2600 ha         1 493       0.137000
     74 H59         -3.8830     2.9870    -3.0970 ha         1 493       0.138000
     75 H60         -2.5330     4.0010    -4.8910 ha         1 493       0.121000
     76 H61         -1.6040     6.2640    -4.6090 ha         1 493       0.116000
     77 H62         -2.0170     7.5240    -2.5330 ha         1 493       0.121000
     78 H63         -3.3690     6.5270    -0.7310 ha         1 493       0.138000
@<TRIPOS>BOND
     1     1     2 ar  
     2     1     6 ar  
     3     1    46 1   
     4     2     3 ar  
     5     2    47 1   
     6     3     4 ar  
     7     3    28 1   
     8     4     5 ar  
     9     4    40 1   
    10     5     6 ar  
    11     5    48 1   
    12     6     9 1   
    13     7     8 1   
    14     7    28 1   
    15     7    49 1   
    16     7    50 1   
    17     8    44 1   
    18     8    45 1   
    19     9    10 1   
    20     9    51 1   
    21     9    52 1   
    22    10    11 1   
    23    10    13 1   
    24    10    53 1   
    25    11    12 1   
    26    11    17 2   
    27    12    18 1   
    28    12    54 1   
    29    13    14 1   
    30    13    55 1   
    31    14    15 1   
    32    14    16 2   
    33    15    56 1   
    34    15    57 1   
    35    15    58 1   
    36    18    19 1   
    37    18    24 1   
    38    18    59 1   
    39    19    20 1   
    40    19    60 1   
    41    19    61 1   
    42    20    21 1   
    43    20    62 1   
    44    20    63 1   
    45    21    22 1   
    46    21    64 1   
    47    21    65 1   
    48    22    23 1   
    49    22    66 1   
    50    22    67 1   
    51    23    24 1   
    52    23    25 1   
    53    24    27 2   
    54    25    26 1   
    55    25    68 1   
    56    25    69 1   
    57    26    29 ar  
    58    26    33 ar  
    59    29    30 ar  
    60    29    70 1   
    61    30    31 ar  
    62    30    71 1   
    63    31    32 ar  
    64    31    34 1   
    65    32    33 ar  
    66    32    72 1   
    67    33    73 1   
    68    34    35 ar  
    69    34    39 ar  
    70    35    36 ar  
    71    35    74 1   
    72    36    37 ar  
    73    36    75 1   
    74    37    38 ar  
    75    37    76 1   
    76    38    39 ar  
    77    38    77 1   
    78    39    78 1   
    79    40    41 1   
    80    40    42 1   
    81    40    43 1   
@<TRIPOS>SUBSTRUCTURE
     1 493         1 TEMP              0 ****  ****    0 ROOT
