@<TRIPOS>MOLECULE
494
   45    48     1     0     0
SMALL
bcc


@<TRIPOS>ATOM
      1 C00          0.0000     0.0000     0.0000 ca         1 494      -0.181000
      2 C01          1.3830     0.0000     0.0000 ca         1 494      -0.128000
      3 C02          2.0780     0.0000     1.1960 ca         1 494      -0.120000
      4 C03          1.3920     0.0010     2.3970 ca         1 494      -0.163000
      5 C04          0.0060     0.0010     2.4040 ca         1 494       0.098000
      6 C05         -0.6930     0.0010     1.2000 ca         1 494       0.096000
      7 Cl7          2.2500    -0.0010    -1.5040 cl         1 494       0.060000
      8 O0A         -0.6690     0.0010     3.5840 os         1 494      -0.109000
      9 O0B         -2.0520     0.0060     1.2020 os         1 494      -0.194000
     10 C0C          0.0550     0.0080     4.7340 ca         1 494       0.013000
     11 C0D          0.4190     1.2150     5.3170 ca         1 494      -0.092000
     12 C0E          1.1570     1.2290     6.4890 ca         1 494      -0.109000
     13 C0F          1.5360     0.0430     7.0850 ca         1 494      -0.071000
     14 C0G          1.1740    -1.1760     6.5050 ca         1 494      -0.035000
     15 C0H          0.4250    -1.1880     5.3250 ca         1 494      -0.036000
     16 Cl0          1.6060     2.7440     7.2090 cl         1 494       0.077000
     17 C0M          1.5770    -2.4430     7.1380 c2         1 494      -0.154000
     18 C0O         -2.7030     0.0120    -0.0700 c3         1 494      -0.048000
     19 C0P         -4.2190     0.0170     0.1320 c3         1 494      -0.259000
     20 N0S         -4.6210     1.2690     0.7780 n          1 494       0.618000
     21 C0V         -4.6600     1.3440     2.1200 c2         1 494       0.012000
     22 N0W         -5.0250     2.4820     2.7390 ns         1 494       0.094000
     23 C0X         -5.3600     3.5710     2.0170 c2         1 494       0.224000
     24 C0Y         -5.3230     3.5060     0.6040 c2         1 494      -0.247000
     25 C0Z         -4.9470     2.3540     0.0100 c2         1 494      -0.138000
     26 O10         -4.3620     0.3710     2.7840 o          1 494      -0.408000
     27 O12         -5.6920     4.6020     2.5780 o          1 494      -0.370000
     28 C15          2.2950    -2.4290     8.2780 c3         1 494      -0.011000
     29 C17          2.6860    -3.6610     8.8940 c1         1 494       0.145000
     30 N19          3.0160    -4.6330     9.3830 n1         1 494      -0.106000
     31 H1          -0.4010     0.1970    -0.9870 ha         1 494       0.135000
     32 H2           3.1400    -0.1730     1.0710 ha         1 494       0.122000
     33 H3           2.2160     0.2680     3.0470 ha         1 494       0.147000
     34 H4          -0.0230     1.9490     4.6550 ha         1 494       0.139000
     35 H5           2.2400     0.1760     7.8980 ha         1 494       0.137000
     36 H6          -0.0820    -2.0000     4.8180 ha         1 494       0.134000
     37 H7           1.4530    -2.6580     8.1920 DU         1 494       0.083000
     38 H8          -2.2540     0.9250    -0.4410 h1         1 494       0.082000
     39 H9          -2.5880    -1.0060    -0.4230 h1         1 494       0.082000
     40 H10         -4.1880    -1.0630     0.2110 h1         1 494       0.044500
     41 H11         -4.4610     0.8690     0.7560 h1         1 494       0.044500
     42 H12         -5.4250     2.6430     3.6430 hn         1 494       0.125000
     43 H13         -5.7390     4.3410     0.0530 ha         1 494       0.155000
     44 H14         -4.2860     2.1800    -0.8310 h4         1 494       0.149000
     45 H15          2.2990    -3.4800     8.5410 hc         1 494      -0.038000
@<TRIPOS>BOND
     1     1     2 1   
     2     1     6 1   
     3     1    31 1   
     4     2     3 1   
     5     2     7 1   
     6     3     4 1   
     7     3    32 1   
     8     4     5 1   
     9     4    33 1   
    10     5     6 1   
    11     5     8 1   
    12     6     9 1   
    13     8    10 1   
    14     9    18 1   
    15    10    11 1   
    16    10    15 1   
    17    11    12 1   
    18    11    34 1   
    19    12    13 1   
    20    12    16 1   
    21    13    14 1   
    22    13    35 1   
    23    14    15 1   
    24    14    17 1   
    25    15    36 1   
    26    17    28 1   
    27    17    37 1   
    28    18    19 1   
    29    18    38 1   
    30    18    39 1   
    31    19    20 1   
    32    19    40 1   
    33    19    41 1   
    34    20    21 1   
    35    20    25 1   
    36    21    22 1   
    37    21    26 1   
    38    22    23 1   
    39    22    42 1   
    40    23    24 1   
    41    23    27 1   
    42    24    25 1   
    43    24    43 1   
    44    25    44 1   
    45    28    29 1   
    46    28    37 1   
    47    28    45 1   
    48    29    30 1   
@<TRIPOS>SUBSTRUCTURE
     1 494         1 TEMP              0 ****  ****    0 ROOT
