@<TRIPOS>MOLECULE
molecule
   45    47     1     0     0
SMALL
bcc


@<TRIPOS>ATOM
      1 C00          0.0000     0.0000     0.0000 ca         1 494      -0.211000
      2 C01          1.3830     0.0000     0.0000 ca         1 494       0.052400
      3 C02          2.0780     0.0000     1.1960 ca         1 494      -0.119000
      4 C03          1.3920     0.0010     2.3970 ca         1 494      -0.157000
      5 C04          0.0060     0.0010     2.4040 ca         1 494       0.104100
      6 C05         -0.6930     0.0010     1.2000 ca         1 494       0.112100
      7 Cl7          2.2500    -0.0010    -1.5040 cl         1 494      -0.102400
      8 O0A         -0.6690     0.0010     3.5840 os         1 494      -0.222200
      9 O0B         -2.0520     0.0060     1.2020 os         1 494      -0.328900
     10 C0C          0.0550     0.0080     4.7340 ca         1 494       0.103100
     11 C0D          0.4190     1.2150     5.3170 ca         1 494      -0.134000
     12 C0E          1.1570     1.2290     6.4890 ca         1 494       0.072400
     13 C0F          1.5360     0.0430     7.0850 ca         1 494      -0.119000
     14 C0G          1.1740    -1.1760     6.5050 ca         1 494      -0.086800
     15 C0H          0.4250    -1.1880     5.3250 ca         1 494      -0.132000
     16 Cl0          1.6060     2.7440     7.2090 cl         1 494      -0.089400
     17 C0M          1.5770    -2.4430     7.1380 ce         1 494      -0.037200
     18 C0O         -2.7030     0.0120    -0.0700 c3         1 494       0.104400
     19 C0P         -4.2190     0.0170     0.1320 c3         1 494       0.171000
     20 N0S         -4.6210     1.2690     0.7780 n          1 494      -0.374000
     21 C0V         -4.6600     1.3440     2.1200 c          1 494       0.808500
     22 N0W         -5.0250     2.4820     2.7390 ns         1 494      -0.564500
     23 C0X         -5.3600     3.5710     2.0170 c          1 494       0.684700
     24 C0Y         -5.3230     3.5060     0.6040 cc         1 494      -0.319200
     25 C0Z         -4.9470     2.3540     0.0100 cd         1 494       0.031600
     26 O10         -4.3620     0.3710     2.7840 o          1 494      -0.617500
     27 O12         -5.6920     4.6020     2.5780 o          1 494      -0.621500
     28 C15          2.2950    -2.4290     8.2780 cf         1 494      -0.060700
     29 C17          2.6860    -3.6610     8.8940 ch         1 494       0.163500
     30 N19          2.9780    -4.6450     9.3820 n1         1 494      -0.359800
     31 H1          -0.7760     0.3140    -0.6880 ha         1 494       0.153000
     32 H2           3.1050    -0.3350     1.1200 ha         1 494       0.153000
     33 H3           1.8380    -0.0160     3.3840 ha         1 494       0.156000
     34 H4          -0.0160     2.0060     4.7190 ha         1 494       0.170000
     35 H5           2.3470    -0.2390     7.7450 ha         1 494       0.160000
     36 H6          -0.1910    -2.0680     5.1820 ha         1 494       0.159000
     37 H7           1.2660    -3.3330     6.6040 ha         1 494       0.155000
     38 H8          -2.0370    -0.7770    -0.3970 h1         1 494       0.060200
     39 H9          -2.1570     0.8600    -0.4650 h1         1 494       0.060200
     40 H10         -4.9560    -0.7770     0.1410 h1         1 494       0.070200
     41 H11         -4.3720     0.4560    -0.8470 h1         1 494       0.070200
     42 H12         -5.0940     2.6250     3.7270 hn         1 494       0.365500
     43 H13         -5.7680     4.3610     0.1090 ha         1 494       0.183000
     44 H14         -4.5490     2.4370    -0.9940 h4         1 494       0.165000
     45 H15          2.9070    -1.7070     8.8050 ha         1 494       0.166000
@<TRIPOS>BOND
     1     7     2 1   
     2     2     3 ar  
     3     2     1 ar  
     4     3     4 ar  
     5     1     6 ar  
     6    26    21 2   
     7     4     5 ar  
     8     6     5 ar  
     9     6     9 1   
    10    22    21 1   
    11    22    23 1   
    12    21    20 1   
    13     5     8 1   
    14     9    18 1   
    15    27    23 2   
    16    23    24 1   
    17    20    19 1   
    18    20    25 1   
    19     8    10 1   
    20    18    19 1   
    21    24    25 2   
    22    11    10 ar  
    23    11    12 ar  
    24    10    15 ar  
    25    16    12 1   
    26    12    13 ar  
    27    15    14 ar  
    28    13    14 ar  
    29    14    17 1   
    30    17    28 2   
    31    28    29 1   
    32    29    30 3   
    33     1    31 1   
    34     3    32 1   
    35     4    33 1   
    36    11    34 1   
    37    13    35 1   
    38    15    36 1   
    39    17    37 1   
    40    18    38 1   
    41    18    39 1   
    42    19    40 1   
    43    19    41 1   
    44    22    42 1   
    45    24    43 1   
    46    25    44 1   
    47    28    45 1   
@<TRIPOS>SUBSTRUCTURE
     1 494         1 TEMP              0 ****  ****    0 ROOT
