@<TRIPOS>MOLECULE
molecule
   17    18     1     0     0
SMALL
bcc


@<TRIPOS>ATOM
      1 Cl           0.0000     0.0000     0.0000 cl         1 495      -0.068300
      2 C8           1.7370     0.0000     0.0000 cc         1 495       0.451900
      3 N2           2.3870     0.0000     1.1270 nd         1 495      -0.439300
      4 N1           3.7800     0.0000     1.1910 ns         1 495      -0.298900
      5 C7           4.5440    -0.0010     0.0780 c          1 495       0.684100
      6 O            5.7590    -0.0010     0.1580 o          1 495      -0.624500
      7 C6           3.8810    -0.0010    -1.2330 ca         1 495      -0.128600
      8 C5           2.4680    -0.0070    -1.2680 ca         1 495      -0.139900
      9 C1           4.6030    -0.0020    -2.4260 ca         1 495      -0.065000
     10 C2           3.9250    -0.0030    -3.6260 ca         1 495      -0.124000
     11 C3           2.5380    -0.0020    -3.6560 ca         1 495      -0.103000
     12 C4           1.8090    -0.0070    -2.4990 ca         1 495      -0.108000
     13 H1           4.2260     0.0000     2.0870 hn         1 495       0.374500
     14 H2           5.6860    -0.0030    -2.4090 ha         1 495       0.163000
     15 H3           4.4820     0.0010    -4.5550 ha         1 495       0.141000
     16 H4           2.0240    -0.0030    -4.6100 ha         1 495       0.138000
     17 H5           0.7270    -0.0060    -2.5360 ha         1 495       0.149000
@<TRIPOS>BOND
     1    10     9 ar
     2    10    11 ar
     3     9     7 ar
     4     6     5 2
     5    11    12 ar
     6     7     5 1
     7     7     8 ar
     8     5     4 1
     9    12     8 ar
    10     8     2 1
    11     4     3 1
    12     2     3 2
    13     2     1 1
    14     4    13 1
    15     9    14 1
    16    10    15 1
    17    11    16 1
    18    12    17 1
@<TRIPOS>SUBSTRUCTURE
     1 495         1 TEMP              0 ****  ****    0 ROOT
