@<TRIPOS>MOLECULE
495
   17    18     1     0     0
SMALL
bcc


@<TRIPOS>ATOM
      1 Cl           0.0000     0.0000     0.0000 cl         1 495       0.000700
      2 C8           1.7370     0.0000     0.0000 cc         1 495       0.379900
      3 N2           2.3870     0.0000     1.1270 nd         1 495      -0.520300
      4 N1           3.7800     0.0000     1.1910 ns         1 495       0.102100
      5 C7           4.5440    -0.0010     0.0780 c          1 495       0.600100
      6 O            5.7590    -0.0010     0.1580 o          1 495      -0.666500
      7 C6           3.8810    -0.0010    -1.2330 ca         1 495      -0.138600
      8 C5           2.4680    -0.0070    -1.2680 ca         1 495      -0.141900
      9 C1           4.6030    -0.0020    -2.4260 ca         1 495      -0.030000
     10 C2           3.9250    -0.0030    -3.6260 ca         1 495      -0.099000
     11 C3           2.5380    -0.0020    -3.6560 ca         1 495      -0.073000
     12 C4           1.8090    -0.0070    -2.4990 ca         1 495      -0.086000
     13 H1           4.2260     0.0000     2.0870 hn         1 495       0.206500
     14 H2           5.6860    -0.0030    -2.4090 ha         1 495       0.131000
     15 H3           4.4820     0.0010    -4.5550 ha         1 495       0.109000
     16 H4           2.0240    -0.0030    -4.6100 ha         1 495       0.106000
     17 H5           0.7270    -0.0060    -2.5360 ha         1 495       0.119000
@<TRIPOS>BOND
     1     1     2 1   
     2     2     3 2   
     3     2     8 1   
     4     3     4 1   
     5     4     5 1   
     6     4    13 1   
     7     5     6 2   
     8     5     7 1   
     9     7     8 ar  
    10     7     9 ar  
    11     8    12 ar  
    12     9    10 ar  
    13     9    14 1   
    14    10    11 ar  
    15    10    15 1   
    16    11    12 ar  
    17    11    16 1   
    18    12    17 1   
@<TRIPOS>SUBSTRUCTURE
     1 495         1 TEMP              0 ****  ****    0 ROOT
