@<TRIPOS>MOLECULE
496
   45    47     1     0     0
SMALL
bcc


@<TRIPOS>ATOM
      1 O1           0.0000     0.0000     0.0000 o          1 496      -0.398100
      2 C2           1.2170     0.0000     0.0000 c          1 496       0.392700
      3 N3           1.8900     0.0000     1.1670 nz         1 496       0.188600
      4 C4           1.9500    -0.0060    -1.2700 cc         1 496      -0.370600
      5 C5           2.3490     1.2030    -1.9670 cc         1 496      -0.072300
      6 C6           2.0560     2.6090    -1.4690 c3         1 496       0.060900
      7 C10          2.9710     3.5920    -2.2040 c3         1 496      -0.028400
      8 C9           2.8700     3.3420    -3.7110 c3         1 496      -0.028400
      9 C8           3.5440     2.0070    -4.0420 c3         1 496       0.073900
     10 C7           3.0060     0.9430    -3.1030 cd         1 496       0.007600
     11 S11          3.1560    -0.7870    -3.3550 ss         1 496      -0.030800
     12 C12          2.3310    -1.1520    -1.9120 cd         1 496       0.049500
     13 N13          2.0760    -2.4340    -1.4510 ns         1 496       0.007900
     14 C14          2.4950    -3.5010    -2.1610 c          1 496       0.519100
     15 O15          3.0950    -3.3380    -3.2030 o          1 496      -0.512100
     16 C16          2.2180    -4.8960    -1.6610 c3         1 496      -0.053700
     17 N17          2.7710    -5.8710    -2.6040 na         1 496       0.483400
     18 C24          3.6360    -6.8640    -2.3040 cc         1 496      -0.228300
     19 C25          3.9010    -7.5380    -3.4460 cd         1 496      -0.251600
     20 C26          4.8170    -8.7270    -3.5810 c3         1 496       0.311700
     21 O29          5.3770    -9.0450    -2.3050 oh         1 496      -0.604800
     22 C19          3.1740    -6.9380    -4.4790 cd         1 496       0.267600
     23 N18          2.4920    -5.9430    -3.9740 nc         1 496      -0.554800
     24 C20          3.1700    -7.3700    -5.9230 c3         1 496       0.575600
     25 F21          4.4080    -7.9400    -6.2420 f          1 496      -0.200633
     26 F22          2.1570    -8.3120    -6.1270 f          1 496      -0.200633
     27 F23          2.9440    -6.2580    -6.7410 f          1 496      -0.200633
     28 H1           1.6900    -0.8430     1.6670 hn         1 496       0.246800
     29 H2           2.8730     0.0540     0.9850 hn         1 496       0.246800
     30 H3           2.2480     2.6630    -0.4040 hc         1 496       0.009700
     31 H4           1.0210     2.8570    -1.6710 hc         1 496       0.009700
     32 H5           3.9940     3.4430    -1.8810 hc         1 496       0.026200
     33 H6           2.6600     4.6060    -1.9850 hc         1 496       0.026200
     34 H7           3.4110     4.1300    -4.2220 hc         1 496       0.035700
     35 H8           1.8220     3.2660    -3.9720 hc         1 496       0.035700
     36 H9           3.2750     1.7330    -5.0550 hc         1 496       0.041700
     37 H10          4.6080     2.1100    -3.8650 hc         1 496       0.041700
     38 H11          1.5570    -2.5680    -0.6060 hn         1 496       0.150500
     39 H12          2.6810    -5.0300    -0.6900 h1         1 496       0.047200
     40 H13          1.1490    -5.0430    -1.5750 h1         1 496       0.047200
     41 H14          3.9740    -7.1350    -1.3110 h4         1 496       0.164000
     42 H15          5.6130    -8.4930    -4.2770 h1         1 496       0.006200
     43 H16          4.2540    -9.5770    -3.9490 h1         1 496       0.006200
     44 H17          5.9690    -9.7730    -2.3940 ho         1 496       0.405000
     45 H33          1.6070     0.7880     1.7150 hn         1 496       0.246800
@<TRIPOS>BOND
     1     1     2 2   
     2     2     3 1   
     3     2     4 1   
     4     3    28 1   
     5     3    29 1   
     6     3    45 1   
     7     4     5 1   
     8     4    12 2   
     9     5     6 1   
    10     5    10 2   
    11     6     7 1   
    12     6    30 1   
    13     6    31 1   
    14     7     8 1   
    15     7    32 1   
    16     7    33 1   
    17     8     9 1   
    18     8    34 1   
    19     8    35 1   
    20     9    10 1   
    21     9    36 1   
    22     9    37 1   
    23    10    11 1   
    24    11    12 1   
    25    12    13 1   
    26    13    14 1   
    27    13    38 1   
    28    14    15 2   
    29    14    16 1   
    30    16    17 1   
    31    16    39 1   
    32    16    40 1   
    33    17    18 1   
    34    17    23 1   
    35    18    19 2   
    36    18    41 1   
    37    19    20 1   
    38    19    22 1   
    39    20    21 1   
    40    20    42 1   
    41    20    43 1   
    42    21    44 1   
    43    22    23 2   
    44    22    24 1   
    45    24    25 1   
    46    24    26 1   
    47    24    27 1   
@<TRIPOS>SUBSTRUCTURE
     1 496         1 TEMP              0 ****  ****    0 ROOT
