@<TRIPOS>MOLECULE
497
   53    56     1     0     0
SMALL
bcc


@<TRIPOS>ATOM
      1 C47          0.0000     0.0000     0.0000 c3         1 497       0.000900
      2 C45          1.5300     0.0000     0.0000 c3         1 497      -0.030400
      3 C39          2.0400     0.0000     1.4420 c3         1 497       0.010600
      4 C38          1.5300    -1.2480     2.1650 c3         1 497       0.130800
      5 N37          2.1830    -1.3330     3.4780 n7         1 497      -0.568200
      6 C36          3.5590    -1.7680     3.2340 c3         1 497       0.199100
      7 C26          4.2570    -0.8300     2.2850 ca         1 497      -0.078300
      8 C27          3.5480     0.0000     1.4420 ca         1 497      -0.044300
      9 C28          4.2180     0.8510     0.5800 ca         1 497      -0.130000
     10 C22          5.6050     0.8710     0.5590 ca         1 497      -0.113400
     11 N21          6.2820     1.7300    -0.3120 ns         1 497      -0.009100
     12 C20          7.4620     1.3570    -0.8450 c          1 497       0.563700
     13 O23          7.8890     0.2360    -0.6480 o          1 497      -0.621100
     14 C11          8.2350     2.3080    -1.6690 ca         1 497      -0.115600
     15 C12          7.7360     3.6030    -1.8910 ca         1 497      -0.062000
     16 C13          8.4280     4.4950    -2.6450 ca         1 497      -0.083000
     17 C4           9.6630     4.1290    -3.2130 ca         1 497      -0.032000
     18 C5          10.3940     5.0370    -3.9940 ca         1 497      -0.009000
     19 C6          11.6050     4.6480    -4.5380 ca         1 497      -0.232900
     20 C1          12.1050     3.3550    -4.3150 ca         1 497      -0.138000
     21 C2          11.4120     2.4620    -3.5620 ca         1 497      -0.011000
     22 C3          10.1780     2.8270    -2.9940 ca         1 497      -0.026000
     23 C10          9.4500     1.9200    -2.2080 ca         1 497      -0.018000
     24 C17         12.3800     5.6010    -5.3640 ce         1 497       0.218800
     25 N18         13.5860     5.2210    -5.9080 nz         1 497       0.190400
     26 N19         11.9200     6.8020    -5.5750 n2         1 497      -0.504100
     27 C24          6.3180     0.0350     1.4090 ca         1 497      -0.100000
     28 C25          5.6440    -0.8100     2.2660 ca         1 497      -0.077000
     29 H471        -0.3610     0.3380    -0.9640 hc         1 497       0.005033
     30 H472        -0.3610    -1.0040     0.1890 hc         1 497       0.005033
     31 H473        -0.3610     0.6660     0.7740 hc         1 497       0.005033
     32 H451         1.8910     0.8850    -0.5110 hc         1 497       0.015700
     33 H452         1.8910    -0.8840    -0.5110 hc         1 497       0.015700
     34 H39          1.6820     0.8840     1.9560 hc         1 497       0.047700
     35 H381         0.4570    -1.1770     2.2970 h1         1 497       0.016700
     36 H382         1.7730    -2.1280     1.5820 h1         1 497       0.016700
     37 H37          1.7120    -2.0130     4.0410 hn         1 497       0.257800
     38 H361         3.5340    -2.7550     2.7870 h1         1 497       0.017700
     39 H362         4.0930    -1.7650     4.1760 h1         1 497       0.017700
     40 H28          3.6580     1.5030    -0.0800 ha         1 497       0.113000
     41 H21          5.8850     2.6170    -0.5500 hn         1 497       0.166500
     42 H12          6.7870     3.8920    -1.4560 ha         1 497       0.117000
     43 H13          8.0310     5.4900    -2.8070 ha         1 497       0.117000
     44 H5          10.0130     6.0360    -4.1690 ha         1 497       0.110000
     45 H1          13.0550     3.0670    -4.7480 ha         1 497       0.084000
     46 H2          11.8110     1.4680    -3.3990 ha         1 497       0.127000
     47 H10          9.7710     0.8880    -2.1340 ha         1 497       0.145000
     48 H181        13.4470     4.4370    -6.5150 hn         1 497       0.221800
     49 H182        14.2190     4.9680    -5.1760 hn         1 497       0.221800
     50 H19         11.0440     7.0820    -5.1800 hn         1 497       0.380400
     51 H24          7.4010     0.0460     1.3980 ha         1 497       0.134000
     52 H25          6.2010    -1.4620     2.9280 ha         1 497       0.110000
     53 H183        13.9680     5.9810    -6.4370 hn         1 497       0.221800
@<TRIPOS>BOND
     1     1     2 1   
     2     1    29 1   
     3     1    30 1   
     4     1    31 1   
     5     2     3 1   
     6     2    32 1   
     7     2    33 1   
     8     3     4 1   
     9     3     8 1   
    10     3    34 1   
    11     4     5 1   
    12     4    35 1   
    13     4    36 1   
    14     5     6 1   
    15     5    37 1   
    16     6     7 1   
    17     6    38 1   
    18     6    39 1   
    19     7     8 ar  
    20     7    28 ar  
    21     8     9 ar  
    22     9    10 ar  
    23     9    40 1   
    24    10    11 1   
    25    10    27 ar  
    26    11    12 1   
    27    11    41 1   
    28    12    13 2   
    29    12    14 1   
    30    14    15 ar  
    31    14    23 ar  
    32    15    16 ar  
    33    15    42 1   
    34    16    17 ar  
    35    16    43 1   
    36    17    18 ar  
    37    17    22 ar  
    38    18    19 ar  
    39    18    44 1   
    40    19    20 ar  
    41    19    24 1   
    42    20    21 ar  
    43    20    45 1   
    44    21    22 ar  
    45    21    46 1   
    46    22    23 ar  
    47    23    47 1   
    48    24    25 1   
    49    24    26 2   
    50    25    48 1   
    51    25    49 1   
    52    25    53 1   
    53    26    50 1   
    54    27    28 ar  
    55    27    51 1   
    56    28    52 1   
@<TRIPOS>SUBSTRUCTURE
     1 497         1 TEMP              0 ****  ****    0 ROOT
