@<TRIPOS>MOLECULE
499
   36    37     1     0     0
SMALL
bcc


@<TRIPOS>ATOM
      1 C1          0.7350    0.1400   -0.1710 c2        1 499     -0.008000
      2 C2         -0.3940   -0.5880   -0.6460 c2        1 499     -0.081000
      3 C3         -0.2600   -1.8390   -1.5080 c3        1 499     -0.101000
      4 C11        -8.4700    0.1780    0.2280 c2        1 499     -0.227000
      5 C12        -9.5920    0.8700   -0.0610 c2        1 499     -0.099000
      6 C13       -10.4460    1.3340    1.0260 c2        1 499     -0.174000
      7 C14        -9.8750    2.0000    2.0650 c2        1 499      0.012000
      8 C15        -8.4760    2.1280    2.0610 c1        1 499     -0.217000
      9 C16        -7.3200    2.0260    1.7260 c1        1 499     -0.057000
     10 C           2.8890    0.6060    0.0590 c2        1 499      0.088000
     11 O           2.0180   -0.3040   -0.5840 os        1 499     -0.158000
     12 N2          0.8720    1.2160    0.6300 n2        1 499     -0.029000
     13 N1          2.1470    1.5120    0.7760 n2        1 499     -0.134000
     14 C8         -1.7200   -0.3430   -0.4450 c2        1 499     -0.109000
     15 C4         -2.4470   -1.4410   -1.1790 c2        1 499      0.121000
     16 N3         -1.6220   -2.2910   -1.7850 n2        1 499     -0.151000
     17 C7         -3.6740    1.8410    1.1140 c1        1 499      0.159000
     18 C6         -4.8540    2.2190    1.5660 c2        1 499     -0.370000
     19 C5         -4.9980   -1.5870   -1.2140 c1        1 499      0.134000
     20 N4         -3.8190   -1.5200   -1.1960 n2        1 499     -0.253000
     21 C9         -6.1150    1.6660    1.0980 c2        1 499     -0.074000
     22 N5         -7.2450    0.1450   -0.5490 n4        1 499      0.056000
     23 C10        -6.0850    0.7940    0.0510 c1        1 499     -0.283000
     24 H1          0.2650   -1.6140   -2.4740 h1        1 499      0.146000
     25 H2         -8.3380   -0.3070    1.2170 hx        1 499      0.174000
     26 H3         -9.8340    1.2410   -1.0700 ha        1 499      0.136000
     27 H4        -11.5310    1.1960    0.9400 ha        1 499      0.146000
     28 H5        -10.4640    2.4470    2.8790 ha        1 499      0.148000
     29 H6          4.5170   -0.1510   -0.8430 hn        1 499      0.228000
     30 H7          4.8110    1.1770    0.1610 hn        1 499      0.228000
     31 H8          0.3010   -2.6470   -0.9670 h1        1 499      0.146000
     32 H9         -2.2150    0.4610    0.1160 ha        1 499      0.225000
     33 H10        -4.9250    2.9990    2.3490 ha        1 499      0.185000
     34 H11        -7.3830    0.5770   -1.4680 hn        1 499      0.242000
     35 H12        -6.9380   -0.8330   -0.6960 hn        1 499      0.242000
     36 N           4.2420    0.3870   -0.0510 nh        1 499     -0.293000
@<TRIPOS>BOND
     1    1    2 1   
     2    1   11 1   
     3    1   12 1   
     4    2    3 1   
     5    2   14 1   
     6    3   16 1   
     7    3   24 1   
     8    3   31 1   
     9    4    5 1   
    10    4   22 1   
    11    4   25 1   
    12    5    6 1   
    13    5   26 1   
    14    6    7 1   
    15    6   27 1   
    16    7    8 1   
    17    7   28 1   
    18    8    9 1   
    19    9   21 1   
    20   10   11 1   
    21   10   13 1   
    22   10   36 1   
    23   12   13 1   
    24   14   15 1   
    25   14   32 1   
    26   15   16 1   
    27   15   20 1   
    28   17   18 1   
    29   18   21 1   
    30   18   33 1   
    31   19   20 1   
    32   21   23 1   
    33   22   23 1   
    34   22   34 1   
    35   22   35 1   
    36   29   36 1   
    37   30   36 1   
@<TRIPOS>SUBSTRUCTURE
     1 499         1 TEMP              0 ****  ****    0 ROOT
