@<TRIPOS>MOLECULE
49A
   40    41     1     0     0
SMALL
bcc


@<TRIPOS>ATOM
      1 C1           0.0000     0.0000     0.0000 c2         1 49A       0.393000
      2 C2           1.4740     0.0000     0.0000 c2         1 49A       0.128000
      3 C3           2.0670     0.0000     1.1780 c2         1 49A      -0.419000
      4 C4           3.5670    -0.0190     1.3240 c3         1 49A      -0.229000
      5 C5           4.1840     0.2660    -0.0530 c3         1 49A      -0.118000
      6 C6           3.3910    -0.5390    -1.0890 DU         1 49A      -0.007000
      7 C7           4.0920    -0.4620    -2.4460 c3         1 49A      -0.190000
      8 C8           3.2950    -1.2620    -3.4790 c3         1 49A       0.082000
      9 C9           3.9960    -1.1860    -4.8360 c3         1 49A      -0.474000
     10 C11          7.9990     0.2950     0.2600 c3         1 49A      -0.129000
     11 N5           5.5880    -0.1500    -0.0660 ns         1 49A      -0.025000
     12 O1A         -0.6080     0.0000     1.0520 o          1 49A      -0.549500
     13 O1B         -0.6730     0.0020    -1.1680 o          1 49A      -0.549500
     14 N4           3.9870     1.0140     2.2800 nz         1 49A       0.844000
     15 O6           2.0800     0.0010    -1.1990 os         1 49A      -0.091000
     16 O7           4.1720     0.9030    -2.8630 oh         1 49A      -0.208000
     17 O8           3.2140    -2.6270    -3.0620 oh         1 49A      -0.290000
     18 N9           3.2310    -1.9560    -5.8260 nz         1 49A       0.917000
     19 O10          6.2630     1.8600     0.5830 o          1 49A      -0.417000
     20 H3           1.4550     0.0130     2.0710 ha         1 49A       0.190000
     21 H4           3.8860    -0.9950     1.6700 hx         1 49A       0.111000
     22 H5           3.9370     1.3210    -0.0640 h1         1 49A       0.136000
     23 H6           3.5160    -1.4910    -0.5890 ha         1 49A       0.093000
     24 H7           4.2270    -1.2480    -1.7130 DU         1 49A       0.238000
     25 H8           2.3900    -0.6770    -3.3740 h1         1 49A       0.169000
     26 H91          3.0490    -0.6740    -4.7110 hx         1 49A       0.161000
     27 H92          4.6710    -0.3880    -5.1200 hx         1 49A       0.161000
     28 H111         8.2760    -0.0100    -0.7420 hc         1 49A       0.076000
     29 H112         8.6250     1.1230     0.5720 hc         1 49A       0.076000
     30 H113         8.1350    -0.5360     0.9410 hc         1 49A       0.076000
     31 HN5          5.8270    -1.0960    -0.2920 hn         1 49A       0.107000
     32 HN41         3.3880     0.9900     3.0810 hn         1 49A       0.024667
     33 HN42         4.9310     0.8420     2.5630 hn         1 49A       0.024667
     34 HO7          5.0510     1.0930    -3.1480 ho         1 49A       0.196000
     35 HO8          3.9680    -3.0970    -3.3770 ho         1 49A       0.205000
     36 HN91         3.7090    -2.8120    -6.0240 hn         1 49A       0.013333
     37 HN92         3.1420    -1.4210    -6.6680 hn         1 49A       0.013333
     38 C10          6.5550     0.7240     0.2730 c2         1 49A       0.223000
     39 H43          3.9280     1.9140     1.8460 hn         1 49A       0.024667
     40 H93          2.3140    -2.1390    -5.4700 hn         1 49A       0.013333
@<TRIPOS>BOND
     1     1     2 1   
     2     1    12 1   
     3     1    13 1   
     4     2     3 1   
     5     2    15 1   
     6     3     4 1   
     7     3    20 1   
     8     4     5 1   
     9     4    14 1   
    10     4    21 1   
    11     5     6 1   
    12     5    11 1   
    13     5    22 1   
    14     6     7 1   
    15     6    15 1   
    16     6    23 1   
    17     6    24 1   
    18     7     8 1   
    19     7    16 1   
    20     7    24 1   
    21     8     9 1   
    22     8    17 1   
    23     8    25 1   
    24     9    18 1   
    25     9    26 1   
    26     9    27 1   
    27    10    28 1   
    28    10    29 1   
    29    10    30 1   
    30    10    38 1   
    31    11    31 1   
    32    11    38 1   
    33    14    32 1   
    34    14    33 1   
    35    14    39 1   
    36    16    34 1   
    37    17    35 1   
    38    18    36 1   
    39    18    37 1   
    40    18    40 1   
    41    19    38 1   
@<TRIPOS>SUBSTRUCTURE
     1 49A         1 TEMP              0 ****  ****    0 ROOT
