@<TRIPOS>MOLECULE
molecule
   40    40     1     0     0
SMALL
bcc


@<TRIPOS>ATOM
      1 C1           0.0000     0.0000     0.0000 c          1 49A       0.864800
      2 C2           1.4740     0.0000     0.0000 ce         1 49A       0.128900
      3 C3           2.0670     0.0000     1.1780 c2         1 49A      -0.410200
      4 C4           3.5670    -0.0190     1.3240 c3         1 49A       0.126700
      5 C5           4.1840     0.2660    -0.0530 c3         1 49A       0.045700
      6 C6           3.3910    -0.5390    -1.0890 c3         1 49A       0.087100
      7 C7           4.0920    -0.4620    -2.4460 c3         1 49A      -0.062900
      8 C8           3.2950    -1.2620    -3.4790 c3         1 49A       0.135100
      9 C9           3.9960    -1.1860    -4.8360 c3         1 49A      -0.083200
     10 C11          7.9990     0.2950     0.2600 c3         1 49A      -0.170100
     11 N5           5.5880    -0.1500    -0.0660 ns         1 49A      -0.601900
     12 O1A         -0.6080     0.0000     1.0520 o          1 49A      -0.762300
     13 O1B         -0.6730     0.0020    -1.1680 o          1 49A      -0.762300
     14 N4           3.9870     1.0140     2.2800 nz         1 49A      -0.795600
     15 O6           2.0800     0.0010    -1.1990 os         1 49A      -0.231900
     16 O7           4.1720     0.9030    -2.8630 oh         1 49A      -0.508800
     17 O8           3.2140    -2.6270    -3.0620 oh         1 49A      -0.580800
     18 N9           3.2310    -1.9560    -5.8260 nz         1 49A      -0.786600
     19 O10          6.2630     1.8600     0.5830 o          1 49A      -0.617100
     20 H3           1.4550     0.0130     2.0710 ha         1 49A       0.203000
     21 H4           3.8860    -0.9950     1.6700 hx         1 49A       0.095700
     22 H5           3.9370     1.3210    -0.0640 h1         1 49A       0.120700
     23 H6           3.5160    -1.4910    -0.5890 h1         1 49A       0.081700
     24 H7           4.2270    -1.2480    -1.7130 h1         1 49A       0.220700
     25 H8           2.3900    -0.6770    -3.3740 h1         1 49A       0.166700
     26 H91          3.0490    -0.6740    -4.7110 hx         1 49A       0.152700
     27 H92          4.6710    -0.3880    -5.1200 hx         1 49A       0.152700
     28 H111         8.2760    -0.0100    -0.7420 hc         1 49A       0.077367
     29 H112         8.6250     1.1230     0.5720 hc         1 49A       0.077367
     30 H113         8.1350    -0.5360     0.9410 hc         1 49A       0.077367
     31 HN5          5.8270    -1.0960    -0.2920 hn         1 49A       0.329500
     32 HN41         3.3880     0.9900     3.0810 hn         1 49A       0.455467
     33 HN42         4.9310     0.8420     2.5630 hn         1 49A       0.455467
     34 HO7          5.0510     1.0930    -3.1480 ho         1 49A       0.411000
     35 HO8          3.9680    -3.0970    -3.3770 ho         1 49A       0.420000
     36 HN91         3.7090    -2.8120    -6.0240 hn         1 49A       0.458467
     37 HN92         3.1420    -1.4210    -6.6680 hn         1 49A       0.458467
     38 C10          6.5550     0.7240     0.2730 c          1 49A       0.655100
     39 H43          3.9280     1.9140     1.8460 hn         1 49A       0.455467
     40 H93          2.3140    -2.1390    -5.4700 hn         1 49A       0.458467
@<TRIPOS>BOND
     1     1     2 1   
     2     1    12 1   
     3     1    13 1   
     4     2     3 2   
     5     2    15 1   
     6     3     4 1   
     7     3    20 1   
     8     4     5 1   
     9     4    14 1   
    10     4    21 1   
    11     5     6 1   
    12     5    11 1   
    13     5    22 1   
    14     6     7 1   
    15     6    15 1   
    16     6    23 1   
    17     7     8 1   
    18     7    16 1   
    19     7    24 1   
    20     8     9 1   
    21     8    17 1   
    22     8    25 1   
    23     9    18 1   
    24     9    26 1   
    25     9    27 1   
    26    38    10 1   
    27    38    11 1   
    28    38    19 2   
    29    10    28 1   
    30    10    29 1   
    31    10    30 1   
    32    11    31 1   
    33    14    32 1   
    34    14    33 1   
    35    16    34 1   
    36    17    35 1   
    37    18    36 1   
    38    18    37 1   
    39    39    14 1   
    40    40    18 1   
@<TRIPOS>SUBSTRUCTURE
     1 49A         1 TEMP              0 ****  ****    0 ROOT
