@<TRIPOS>MOLECULE
49B
   34    37     1     0     0
SMALL
bcc


@<TRIPOS>ATOM
      1 C1           0.0000     0.0000     0.0000 ca         1 49B       0.440200
      2 C2           1.3920     0.0000     0.0000 cp         1 49B      -0.150300
      3 C3           2.0750     0.0000     1.2190 ca         1 49B      -0.027000
      4 C11          3.7620    -0.0030    -5.9750 ca         1 49B      -0.089000
      5 C12          2.3710    -0.0040    -6.0580 ca         1 49B      -0.091000
      6 C13          1.6050    -0.0030    -4.9330 ca         1 49B      -0.084000
      7 C14          2.2230    -0.0020    -3.6710 ca         1 49B      -0.145300
      8 C15          1.4630    -0.0020    -2.4880 ca         1 49B      -0.050000
      9 C6           3.5680    -0.0600     5.2370 cs         1 49B       0.399500
     10 N3           2.3790     0.0660     5.8640 ns         1 49B       0.202100
     11 N2           1.3950     0.1020     4.8650 nc         1 49B      -0.631300
     12 O            3.3260    -0.0940     3.9150 os         1 49B      -0.284700
     13 C5           1.9940     0.0010     3.7130 cd         1 49B       0.626200
     14 C4           1.3240    -0.0000     2.3960 ca         1 49B      -0.261200
     15 C           -0.0780     0.0010     2.3080 ca         1 49B       0.554200
     16 N           -0.8380     0.0010     3.4670 nv         1 49B      -0.651500
     17 N1          -0.6800     0.0010     1.1300 nb         1 49B      -0.589000
     18 C7           2.1440    -0.0020    -1.2790 cp         1 49B      -0.159300
     19 C9           3.6380    -0.0010    -3.5840 ca         1 49B       0.373600
     20 N4           4.2360    -0.0020    -2.3880 nb         1 49B      -0.553000
     21 C8           3.5480    -0.0010    -1.2750 ca         1 49B       0.410200
     22 C10          4.3930    -0.0020    -4.7690 ca         1 49B      -0.138300
     23 H1          -0.5330     0.0000    -0.9430 h4         1 49B      -0.010900
     24 H2           3.1570     0.0000     1.2510 ha         1 49B       0.133000
     25 H3           4.3500    -0.0050    -6.8850 ha         1 49B       0.106000
     26 H4           1.8930    -0.0050    -7.0300 ha         1 49B       0.105000
     27 H5           0.5240    -0.0030    -5.0100 ha         1 49B       0.108000
     28 H6           0.4130    -0.2670    -2.5180 ha         1 49B       0.119000
     29 H7           2.2290     0.1230     6.8520 hn         1 49B       0.239500
     30 H8          -1.1500     0.8670     3.8600 hn         1 49B       0.287800
     31 H9          -1.1210    -0.8660     3.8790 hn         1 49B       0.287800
     32 H10          4.0740     0.0010    -0.3280 h4         1 49B      -0.013900
     33 H11          5.4760    -0.0020    -4.7230 ha         1 49B       0.120000
     34 S            5.1040    -0.1530     5.9890 s          1 49B      -0.584400
@<TRIPOS>BOND
     1     1     2 ar  
     2     1    17 ar  
     3     1    23 1   
     4     2     3 ar  
     5     2    18 1   
     6     3    14 ar  
     7     3    24 1   
     8     4     5 ar  
     9     4    22 ar  
    10     4    25 1   
    11     5     6 ar  
    12     5    26 1   
    13     6     7 ar  
    14     6    27 1   
    15     7     8 ar  
    16     7    19 ar  
    17     8    18 ar  
    18     8    28 1   
    19     9    10 1   
    20     9    12 1   
    21     9    34 2   
    22    10    11 1   
    23    10    29 1   
    24    11    13 2   
    25    12    13 1   
    26    13    14 1   
    27    14    15 ar  
    28    15    16 1   
    29    15    17 ar  
    30    16    30 1   
    31    16    31 1   
    32    18    21 ar  
    33    19    20 ar  
    34    19    22 ar  
    35    20    21 ar  
    36    21    32 1   
    37    22    33 1   
@<TRIPOS>SUBSTRUCTURE
     1 49B         1 TEMP              0 ****  ****    0 ROOT
