@<TRIPOS>MOLECULE
49C
   39    40     1     0     0
SMALL
bcc


@<TRIPOS>ATOM
      1 C4          0.0040   -0.3070   -0.1120 c3        1 49C      0.187000
      2 C14         1.9990    0.2120    1.2950 c2        1 49C      0.185000
      3 C5         -0.5380   -0.0540   -1.5080 c2        1 49C     -0.126000
      4 C6         -0.5490   -1.0170   -2.4560 c2        1 49C     -0.222000
      5 C11        -2.5040    1.3060   -3.5540 c1        1 49C      0.224000
      6 C7         -1.1710   -2.1720    1.0770 c2        1 49C     -0.157000
      7 C8         -0.1850   -1.7400    0.2940 c2        1 49C     -0.222000
      8 C9         -1.0460   -0.7200   -3.8250 c3        1 49C     -0.050000
      9 C10        -1.3760    0.7310   -3.9460 c2        1 49C     -0.423000
     10 C12        -0.8830    1.3010   -1.7950 c1        1 49C     -0.097000
     11 C13         1.4940    0.0770   -0.1000 c3        1 49C     -0.213000
     12 C2         -0.2100    0.9220    1.9730 c2        1 49C      0.362000
     13 O3         -0.7480    0.5700    0.7510 os        1 49C     -0.258000
     14 O15         3.3160   -0.0230    1.5390 oh        1 49C     -0.207000
     15 C16         1.1720    0.5710    2.3210 c2        1 49C     -0.495000
     16 S17         1.6410    0.4530    3.9420 ss        1 49C      0.541000
     17 C18         1.7940    1.9950    4.5600 c2        1 49C     -0.245000
     18 C19         1.4300    3.2170    3.7990 c3        1 49C     -0.145000
     19 C20         1.6730    4.4960    4.5010 c2        1 49C     -0.094000
     20 C21         2.1570    4.5450    5.7620 c2        1 49C     -0.190000
     21 C22         2.4950    3.3620    6.4960 c1        1 49C     -0.059000
     22 C23         2.2660    2.1240    5.8480 c2        1 49C     -0.150000
     23 CL          2.6320    0.7040    6.7210 cl        1 49C     -0.007000
     24 H1         -1.7430    1.7800   -1.3150 ha        1 49C      0.124000
     25 H2         -0.2260   -2.0490   -2.2670 ha        1 49C      0.139000
     26 H3         -1.9260   -1.4960    1.5060 ha        1 49C      0.131500
     27 H4         -1.2800   -3.2320    1.3440 ha        1 49C      0.131500
     28 H5          0.5600   -2.4300   -0.1320 ha        1 49C      0.128000
     29 H6         -1.9510   -1.3490   -4.0460 hc        1 49C      0.103500
     30 H7         -0.2610   -0.9940   -4.5810 hc        1 49C      0.103500
     31 H8         -0.5870    1.3580   -4.4140 ha        1 49C      0.213000
     32 H9          1.6200    1.0630   -0.6300 hc        1 49C      0.138000
     33 H10         2.0740   -0.6960   -0.6690 hc        1 49C      0.138000
     34 H11         3.7560   -0.2510    0.7020 ho        1 49C      0.237000
     35 H12         1.9870    3.2280    2.8190 hc        1 49C      0.146500
     36 H13         0.3240    3.1600    3.5500 hc        1 49C      0.146500
     37 H14         1.4240    5.4030    3.9270 ha        1 49C      0.130000
     38 H15         2.3200    5.5060    6.2750 ha        1 49C      0.148000
     39 O1         -1.0160    1.5760    2.6370 o         1 49C     -0.295000
@<TRIPOS>BOND
     1    1    3 1   
     2    1    7 1   
     3    1   11 1   
     4    1   13 1   
     5    2   11 1   
     6    2   14 1   
     7    2   15 1   
     8    3    4 1   
     9    3   10 1   
    10    4    8 1   
    11    4   25 1   
    12    5    9 1   
    13    6    7 1   
    14    6   26 1   
    15    6   27 1   
    16    7   28 1   
    17    8    9 1   
    18    8   29 1   
    19    8   30 1   
    20    9   31 1   
    21   10   24 1   
    22   11   32 1   
    23   11   33 1   
    24   12   13 1   
    25   12   15 1   
    26   12   39 1   
    27   14   34 1   
    28   15   16 1   
    29   16   17 1   
    30   17   18 1   
    31   17   22 1   
    32   18   19 1   
    33   18   35 1   
    34   18   36 1   
    35   19   20 1   
    36   19   37 1   
    37   20   21 1   
    38   20   38 1   
    39   21   22 1   
    40   22   23 1   
@<TRIPOS>SUBSTRUCTURE
     1 49C         1 TEMP              0 ****  ****    0 ROOT
