@<TRIPOS>MOLECULE
molecule
   39    42     1     0     0
SMALL
bcc


@<TRIPOS>ATOM
      1 C4           0.0000     0.0000     0.0000 c3         1 49C       0.222100
      2 C14          2.0460     0.0000     1.4130 c2         1 49C       0.171900
      3 C5          -0.5310     0.2480    -1.3920 ca         1 49C      -0.096300
      4 C6          -0.9560    -0.9470    -1.9450 ca         1 49C      -0.077300
      5 C11         -1.1660     1.4010    -3.3970 ca         1 49C      -0.133000
      6 C7          -0.7320    -2.0760    -0.9620 c3         1 49C      -0.035100
      7 C8          -0.5300    -1.3870     0.4050 c3         1 49C      -0.109400
      8 C9          -1.4860    -0.9630    -3.2240 ca         1 49C      -0.117000
      9 C10         -1.5920     0.2070    -3.9490 ca         1 49C      -0.112000
     10 C12         -0.6370     1.4200    -2.1210 ca         1 49C      -0.087000
     11 C13          1.5250     0.0000     0.0000 c3         1 49C      -0.104200
     12 C2          -0.1110     0.8170     2.1950 c          1 49C       0.739800
     13 O3          -0.4940     0.9920     0.9030 os         1 49C      -0.406900
     14 O15          3.3130    -0.4020     1.6510 oh         1 49C      -0.496100
     15 C16          1.2720     0.3940     2.4420 ce         1 49C      -0.182600
     16 S17          1.9190     0.3990     4.0810 ss         1 49C      -0.096500
     17 C18          1.9100     2.1090     4.5050 ca         1 49C       0.020900
     18 C19          1.5680     3.0610     3.5520 ca         1 49C      -0.128000
     19 C20          1.5610     4.4010     3.8890 ca         1 49C      -0.110000
     20 C21          1.8950     4.7950     5.1720 ca         1 49C      -0.129000
     21 C22          2.2370     3.8520     6.1220 ca         1 49C      -0.106000
     22 C23          2.2390     2.5090     5.7960 ca         1 49C       0.038400
     23 Cl           2.6680     1.3250     6.9900 cl         1 49C      -0.095400
     24 H1          -1.2470     2.3210    -3.9640 ha         1 49C       0.136000
     25 H2           0.1540    -2.6380    -1.2320 hc         1 49C       0.060200
     26 H3          -1.6010    -2.7220    -0.9300 hc         1 49C       0.060200
     27 H4           0.2030    -1.9190     0.9990 hc         1 49C       0.073200
     28 H5          -1.4720    -1.2980     0.9330 hc         1 49C       0.073200
     29 H6          -1.8210    -1.8980    -3.6570 ha         1 49C       0.134000
     30 H7          -2.0060     0.1900    -4.9500 ha         1 49C       0.135000
     31 H8          -0.3040     2.3560    -1.6880 ha         1 49C       0.137000
     32 H9           1.8820     0.8850    -0.5120 hc         1 49C       0.082700
     33 H10          1.8820    -0.8850    -0.5120 hc         1 49C       0.082700
     34 H11          3.9160     0.2140     1.2690 ho         1 49C       0.437000
     35 H12          1.3060     2.7530     2.5470 ha         1 49C       0.136000
     36 H13          1.2940     5.1440     3.1470 ha         1 49C       0.134000
     37 H14          1.8920     5.8470     5.4320 ha         1 49C       0.136000
     38 H15          2.4950     4.1650     7.1260 ha         1 49C       0.145000
     39 O1          -0.8860     1.0050     3.1140 o          1 49C      -0.534500
@<TRIPOS>BOND
     1    21    20 ar  
     2    21    22 ar  
     3    23    22 1   
     4    20    19 ar  
     5    22    17 ar  
     6    14     2 1   
     7    19    18 ar  
     8    17    18 ar  
     9    17    16 1   
    10    16    15 1   
    11     2    15 2   
    12     2    11 1   
    13    15    12 1   
    14    11     1 1   
    15    12    39 2   
    16    12    13 1   
    17     7     1 1   
    18     7     6 1   
    19     1    13 1   
    20     1     3 1   
    21     6     4 1   
    22     3     4 ar  
    23     3    10 ar  
    24     4     8 ar  
    25    10     5 ar  
    26     8     9 ar  
    27     5     9 ar  
    28     5    24 1   
    29     6    25 1   
    30     6    26 1   
    31     7    27 1   
    32     7    28 1   
    33     8    29 1   
    34     9    30 1   
    35    10    31 1   
    36    11    32 1   
    37    11    33 1   
    38    14    34 1   
    39    18    35 1   
    40    19    36 1   
    41    20    37 1   
    42    21    38 1   
@<TRIPOS>SUBSTRUCTURE
     1 49C         1 TEMP              0 ****  ****    0 ROOT
