@<TRIPOS>MOLECULE
molecule
   45    48     1     0     0
SMALL
bcc


@<TRIPOS>ATOM
      1 C2           0.0000     0.0000     0.0000 c3         1 49D      -0.084400
      2 C3           1.5420     0.0000     0.0000 c3         1 49D      -0.094900
      3 C4           0.8520    -0.9280     2.1250 c3         1 49D      -0.094900
      4 C5           1.9230     0.0000     1.5000 c3         1 49D       0.080000
      5 N8           3.2660    -0.5520     1.6960 na         1 49D       0.082400
      6 C11          4.3220     0.1010     2.2510 cc         1 49D       0.264100
      7 N13          4.4940     1.3310     2.7570 nc         1 49D      -0.751100
      8 N9           3.6810    -1.8430     1.3500 nc         1 49D      -0.512800
      9 C10          4.9360    -1.9970     1.6630 cd         1 49D       0.417200
     10 C12          5.4010    -0.7970     2.2400 cd         1 49D      -0.464900
     11 C16          6.6460    -0.3720     2.7670 c          1 49D       0.753100
     12 O17          7.6090    -1.1190     2.7770 o          1 49D      -0.638500
     13 N15          6.7390     0.8840     3.2580 ns         1 49D      -0.490400
     14 C14          5.6530     1.7100     3.2430 cd         1 49D       0.756800
     15 N18          5.7770     2.9780     3.7490 nu         1 49D      -0.869200
     16 C19          4.6280     3.8870     3.7410 c3         1 49D       0.299800
     17 C20          3.7710     3.6340     4.9830 c3         1 49D      -0.106100
     18 C24          5.1140     5.3130     3.7480 ca         1 49D      -0.101300
     19 C29          6.2020     5.6680     4.5230 ca         1 49D      -0.114000
     20 C28          6.6520     6.9750     4.5260 ca         1 49D      -0.115000
     21 C27          6.0130     7.9280     3.7530 ca         1 49D       0.031400
     22 C26          4.9240     7.5710     2.9780 ca         1 49D      -0.115000
     23 C25          4.4750     6.2650     2.9760 ca         1 49D      -0.114000
     24 C1          -0.4390    -0.5900     1.3510 c3         1 49D      -0.084400
     25 Cl           6.5770     9.5700     3.7550 cl         1 49D      -0.100400
     26 H1          -0.3700     1.0130    -0.0990 hc         1 49D       0.045700
     27 H2          -0.3700    -0.6170    -0.8100 hc         1 49D       0.045700
     28 H3           1.9200     0.8920    -0.4850 hc         1 49D       0.061200
     29 H4           1.9200    -0.8920    -0.4850 hc         1 49D       0.061200
     30 H5           0.7290    -0.7080     3.1790 hc         1 49D       0.061200
     31 H6           1.1190    -1.9670     1.9770 hc         1 49D       0.061200
     32 H7           1.8480     0.9990     1.9120 h1         1 49D       0.086700
     33 H8           5.5220    -2.8950     1.5100 h4         1 49D       0.061100
     34 H9           7.6060     1.2080     3.6370 hn         1 49D       0.331500
     35 H10          6.6520     3.2810     4.1310 hn         1 49D       0.449800
     36 H11          4.0350     3.7120     2.8510 h1         1 49D       0.093700
     37 H12          2.7800     3.3210     4.6800 hc         1 49D       0.049033
     38 H13          4.2270     2.8570     5.5850 hc         1 49D       0.049033
     39 H14          3.7000     4.5450     5.5650 hc         1 49D       0.049033
     40 H15          6.7020     4.9220     5.1280 ha         1 49D       0.136500
     41 H16          7.5050     7.2530     5.1340 ha         1 49D       0.148500
     42 H17          4.4230     8.3170     2.3720 ha         1 49D       0.148500
     43 H18          3.6220     5.9860     2.3690 ha         1 49D       0.136500
     44 H19         -1.0200    -1.4900     1.1900 hc         1 49D       0.045700
     45 H20         -1.0200     0.1400     1.9020 hc         1 49D       0.045700
@<TRIPOS>BOND
     1    25    21 1
     2     1    24 1
     3     1     2 1
     4    20    21 ar
     5    20    19 ar
     6    21    22 ar
     7    19    18 ar
     8    22    23 ar
     9    17    16 1
    10    24     3 1
    11    18    23 ar
    12    18    16 1
    13     3     4 1
    14    16    15 1
    15     2     4 1
    16     4     5 1
    17    15    14 1
    18     7    14 2
    19     7     6 1
    20     5     6 1
    21     5     8 1
    22    14    13 1
    23     6    10 2
    24     8     9 2
    25    13    11 1
    26    10     9 1
    27    10    11 1
    28    11    12 2
    29     1    26 1
    30     1    27 1
    31     2    28 1
    32     2    29 1
    33     3    30 1
    34     3    31 1
    35     4    32 1
    36     9    33 1
    37    13    34 1
    38    15    35 1
    39    16    36 1
    40    17    37 1
    41    17    38 1
    42    17    39 1
    43    19    40 1
    44    20    41 1
    45    22    42 1
    46    23    43 1
    47    24    44 1
    48    24    45 1
@<TRIPOS>SUBSTRUCTURE
     1 49D         1 TEMP              0 ****  ****    0 ROOT
