@<TRIPOS>MOLECULE
49E
   45    48     1     0     0
SMALL
bcc


@<TRIPOS>ATOM
      1 C2           0.0000     0.0000     0.0000 c3         1 49E      -0.021400
      2 C3           1.5430     0.0000     0.0000 c3         1 49E      -0.037900
      3 C4           0.8510    -0.9280     2.1250 c3         1 49E      -0.037900
      4 C5           1.9230     0.0000     1.5020 c3         1 49E      -0.044000
      5 N8           3.2650    -0.5520     1.6980 na         1 49E       0.510400
      6 C11          4.2840     0.0520     2.3670 cc         1 49E       0.067100
      7 N13          4.4110     1.2230     3.0070 nc         1 49E      -0.647100
      8 N9           3.7180    -1.7930     1.2360 nc         1 49E      -0.659800
      9 C10          4.9610    -1.9630     1.5880 cd         1 49E       0.495200
     10 C12          5.3780    -0.8260     2.3090 cd         1 49E      -0.491900
     11 C16          6.5920    -0.4430     2.9340 c          1 49E       0.676100
     12 O17          7.5660    -1.1730     2.9080 o          1 49E      -0.678500
     13 N15          6.6400     0.7550     3.5590 ns         1 49E      -0.038400
     14 C14          5.5420     1.5630     3.5820 cd         1 49E       0.422800
     15 N18          5.6220     2.7730     4.2250 nu         1 49E      -0.466200
     16 C19          4.4570     3.6610     4.2610 c3         1 49E       0.202800
     17 C20          4.4200     4.5060     2.9870 c3         1 49E      -0.013100
     18 C24          4.5530     4.5660     5.4630 ca         1 49E      -0.111300
     19 C29          3.4220     4.8570     6.2010 ca         1 49E      -0.084500
     20 C28          3.5100     5.6880     7.3020 ca         1 49E      -0.091000
     21 C27          4.7310     6.2270     7.6660 ca         1 49E      -0.032600
     22 C26          5.8630     5.9350     6.9270 ca         1 49E      -0.091000
     23 C25          5.7750     5.1000     5.8290 ca         1 49E      -0.084500
     24 C1          -0.4400    -0.5900     1.3510 c3         1 49E      -0.021400
     25 Cl           4.8410     7.2760     9.0450 cl         1 49E      -0.017400
     26 H1          -0.3700     1.0140    -0.0980 hc         1 49E       0.014700
     27 H2          -0.3700    -0.6160    -0.8110 hc         1 49E       0.014700
     28 H3           1.9210    -0.8920    -0.4850 hc         1 49E       0.030700
     29 H4           1.9200     0.8920    -0.4850 hc         1 49E       0.030700
     30 H5           0.7280    -0.7070     3.1790 hc         1 49E       0.030700
     31 H6           1.1190    -1.9670     1.9780 hc         1 49E       0.030700
     32 H7           1.8480     0.9990     1.9130 h1         1 49E       0.058700
     33 H8           5.5700    -2.8320     1.3670 h4         1 49E       0.011100
     34 H9           7.4840     1.0490     4.0080 hn         1 49E       0.177500
     35 H10          6.4630     3.0330     4.7000 hn         1 49E       0.300800
     36 H11          3.5530     3.0680     4.3280 h1         1 49E       0.063700
     37 H12          3.5080     4.2970     2.4410 hc         1 49E       0.015367
     38 H13          5.2750     4.2640     2.3680 hc         1 49E       0.015367
     39 H14          4.4510     5.5570     3.2500 hc         1 49E       0.015367
     40 H15          2.4660     4.4350     5.9170 ha         1 49E       0.110000
     41 H16          2.6230     5.9160     7.8810 ha         1 49E       0.117500
     42 H17          6.8200     6.3550     7.2130 ha         1 49E       0.117500
     43 H18          6.6620     4.8710     5.2500 ha         1 49E       0.110000
     44 H19         -1.0210    -1.4910     1.1900 hc         1 49E       0.014700
     45 H20         -1.0210     0.1400     1.9020 hc         1 49E       0.014700
@<TRIPOS>BOND
     1     1     2 1   
     2     1    24 1   
     3     1    26 1   
     4     1    27 1   
     5     2     4 1   
     6     2    28 1   
     7     2    29 1   
     8     3     4 1   
     9     3    24 1   
    10     3    30 1   
    11     3    31 1   
    12     4     5 1   
    13     4    32 1   
    14     5     6 1   
    15     5     8 1   
    16     6     7 1   
    17     6    10 2   
    18     7    14 2   
    19     8     9 2   
    20     9    10 1   
    21     9    33 1   
    22    10    11 1   
    23    11    12 2   
    24    11    13 1   
    25    13    14 1   
    26    13    34 1   
    27    14    15 1   
    28    15    16 1   
    29    15    35 1   
    30    16    17 1   
    31    16    18 1   
    32    16    36 1   
    33    17    37 1   
    34    17    38 1   
    35    17    39 1   
    36    18    19 ar  
    37    18    23 ar  
    38    19    20 ar  
    39    19    40 1   
    40    20    21 ar  
    41    20    41 1   
    42    21    22 ar  
    43    21    25 1   
    44    22    23 ar  
    45    22    42 1   
    46    23    43 1   
    47    24    44 1   
    48    24    45 1   
@<TRIPOS>SUBSTRUCTURE
     1 49E         1 TEMP              0 ****  ****    0 ROOT
