@<TRIPOS>MOLECULE
molecule
   24    24     1     0     0
SMALL
bcc


@<TRIPOS>ATOM
      1 CAC          0.0000     0.0000     0.0000 c3         1 49F      -0.086400
      2 CAD          1.5460     0.0000     0.0000 c3         1 49F      -0.083400
      3 CAE          1.8930     0.0000     1.5100 c3         1 49F       0.139800
      4 NAA          0.8490    -0.8780     2.0990 n7         1 49F      -0.796200
      5 CAB         -0.4020    -0.5550     1.3790 c3         1 49F       0.151500
      6 CAF         -1.2450    -1.8200     1.2060 c3         1 49F      -0.066400
      7 CAG         -1.7430    -2.2930     2.5730 c3         1 49F       0.136400
      8 OAH         -2.5300    -3.4750     2.4110 os         1 49F      -0.431600
      9 CAI         -3.0470    -4.0010     3.6340 c3         1 49F       0.130700
     10 H2          -0.3740    -0.6440    -0.7870 hc         1 49F       0.049700
     11 H3          -0.3740     1.0090    -0.1210 hc         1 49F       0.049700
     12 H5           1.9280     0.8940    -0.4790 hc         1 49F       0.051700
     13 H6           1.9280    -0.8940    -0.4790 hc         1 49F       0.051700
     14 H7           1.8210     1.0010     1.9170 h1         1 49F       0.039700
     15 H8           2.8790    -0.4180     1.6740 h1         1 49F       0.039700
     16 H9           0.7400    -0.6620     3.0700 hn         1 49F       0.344800
     17 H11         -0.9600     0.1940     1.9280 h1         1 49F       0.026700
     18 H12         -2.0930    -1.6050     0.5670 hc         1 49F       0.059700
     19 H13         -0.6410    -2.5970     0.7530 hc         1 49F       0.059700
     20 H14         -2.3470    -1.5160     3.0250 h1         1 49F       0.023700
     21 H15         -0.8950    -2.5080     3.2110 h1         1 49F       0.023700
     22 H16         -3.6470    -4.8790     3.4250 h1         1 49F       0.028033
     23 H17         -2.2250    -4.2730     4.2860 h1         1 49F       0.028033
     24 H18         -3.6600    -3.2520     4.1190 h1         1 49F       0.028033
@<TRIPOS>BOND
     1     1     5 1   
     2     2     3 1   
     3     3     4 1   
     4     4     5 1   
     5     5     6 1   
     6     6     7 1   
     7     7     8 1   
     8     8     9 1   
     9     1     2 1   
    10     1    10 1   
    11     1    11 1   
    12     2    12 1   
    13     2    13 1   
    14     3    14 1   
    15     3    15 1   
    16     4    16 1   
    17     5    17 1   
    18     6    18 1   
    19     6    19 1   
    20     7    20 1   
    21     7    21 1   
    22     9    22 1   
    23     9    23 1   
    24     9    24 1   
@<TRIPOS>SUBSTRUCTURE
     1 49F         1 TEMP              0 ****  ****    0 ROOT
