@<TRIPOS>MOLECULE
49G
   33    34     1     0     0
SMALL
bcc


@<TRIPOS>ATOM
      1 C16          0.0000     0.0000     0.0000 ca         1 49G      -0.105000
      2 C14          1.3820     0.0000     0.0000 ca         1 49G      -0.099000
      3 C15         -0.6910     0.0000     1.1970 ca         1 49G      -0.099000
      4 C12          2.0730     0.0000     1.1970 ca         1 49G      -0.098000
      5 C13         -0.0010    -0.0040     2.3940 ca         1 49G      -0.098000
      6 C4           5.7100     2.6950     7.2420 cc         1 49G      -0.298300
      7 C5           6.0170     2.6130     8.5570 cd         1 49G      -0.253300
      8 C9           1.3820     0.0000     2.3950 ca         1 49G      -0.089300
      9 C3           4.3170     2.7210     7.1250 cc         1 49G       0.354600
     10 C11          2.1340     0.0010     3.7000 c3         1 49G       0.027900
     11 C7           3.3870     2.8140     5.8700 c3         1 49G       0.146500
     12 C10          2.3900     1.4420     4.1410 c3         1 49G       0.153800
     13 N1           3.8040     2.6520     8.3270 nd         1 49G      -0.660800
     14 N2           4.8570     2.5870     9.2490 na         1 49G       0.483400
     15 N6           3.1230     1.4430     5.4140 n7         1 49G      -0.597200
     16 H1          -0.5410     0.0020    -0.9380 ha         1 49G       0.101000
     17 H2           1.9240    -0.0000    -0.9380 ha         1 49G       0.101500
     18 H3          -1.7750    -0.0020     1.1960 ha         1 49G       0.101500
     19 H4           3.1560     0.0020     1.1970 ha         1 49G       0.106000
     20 H5          -0.5440    -0.0040     3.3320 ha         1 49G       0.106000
     21 H6           6.4200     2.7340     6.4240 ha         1 49G       0.135000
     22 H7           7.0130     2.5740     8.9790 h4         1 49G       0.143000
     23 H8           5.2190     3.3510    11.1620 h1         1 49G       0.019700
     24 H9           3.6750     2.5100    10.9720 h1         1 49G       0.019700
     25 H10          5.1810     1.5860    11.0560 h1         1 49G       0.019700
     26 H11          3.0800    -0.5100     3.5710 hc         1 49G       0.023200
     27 H12          1.5480    -0.5090     4.4550 hc         1 49G       0.023200
     28 H13          2.5070     3.3970     6.1150 h1         1 49G       0.012200
     29 H14          3.9220     3.2920     5.0580 h1         1 49G       0.012200
     30 H15          2.9760     1.9530     3.3870 h1         1 49G       0.008200
     31 H16          1.4430     1.9540     4.2700 h1         1 49G       0.008200
     32 H17          2.6880     0.9240     6.1510 hn         1 49G       0.266800
     33 C8           4.7240     2.5030    10.7050 c3         1 49G       0.025600
@<TRIPOS>BOND
     1     1     2 ar  
     2     1     3 ar  
     3     1    16 1   
     4     2     4 ar  
     5     2    17 1   
     6     3     5 ar  
     7     3    18 1   
     8     4     8 ar  
     9     4    19 1   
    10     5     8 ar  
    11     5    20 1   
    12     6     7 2   
    13     6     9 1   
    14     6    21 1   
    15     7    14 1   
    16     7    22 1   
    17     8    10 1   
    18     9    11 1   
    19     9    13 2   
    20    10    12 1   
    21    10    26 1   
    22    10    27 1   
    23    11    15 1   
    24    11    28 1   
    25    11    29 1   
    26    12    15 1   
    27    12    30 1   
    28    12    31 1   
    29    13    14 1   
    30    14    33 1   
    31    15    32 1   
    32    23    33 1   
    33    24    33 1   
    34    25    33 1   
@<TRIPOS>SUBSTRUCTURE
     1 49G         1 TEMP              0 ****  ****    0 ROOT
