@<TRIPOS>MOLECULE
molecule
   33    34     1     0     0
SMALL
bcc


@<TRIPOS>ATOM
      1 C16          0.0000     0.0000     0.0000 ca         1 49G      -0.131000
      2 C14          1.3820     0.0000     0.0000 ca         1 49G      -0.127000
      3 C15         -0.6910     0.0000     1.1970 ca         1 49G      -0.127000
      4 C12          2.0730     0.0000     1.1970 ca         1 49G      -0.124000
      5 C13         -0.0010    -0.0040     2.3940 ca         1 49G      -0.124000
      6 C4           5.7100     2.6950     7.2420 cc         1 49G      -0.323300
      7 C5           6.0170     2.6130     8.5570 cd         1 49G      -0.117300
      8 C9           1.3820     0.0000     2.3950 ca         1 49G      -0.084300
      9 C3           4.3170     2.7210     7.1250 cc         1 49G       0.336600
     10 C11          2.1340     0.0010     3.7000 c3         1 49G      -0.038100
     11 C7           3.3870     2.8140     5.8700 c3         1 49G       0.153500
     12 C10          2.3900     1.4420     4.1410 c3         1 49G       0.176800
     13 N1           3.8040     2.6520     8.3270 nd         1 49G      -0.527800
     14 N2           4.8570     2.5870     9.2490 na         1 49G       0.061400
     15 N6           3.1230     1.4430     5.4140 n7         1 49G      -0.843200
     16 H1          -0.5410     0.0020    -0.9380 ha         1 49G       0.128000
     17 H2           1.9240    -0.0000    -0.9380 ha         1 49G       0.129000
     18 H3          -1.7750    -0.0020     1.1960 ha         1 49G       0.129000
     19 H4           3.1560     0.0020     1.1970 ha         1 49G       0.130500
     20 H5          -0.5440    -0.0040     3.3320 ha         1 49G       0.130500
     21 H6           6.4200     2.7340     6.4240 ha         1 49G       0.156000
     22 H7           7.0130     2.5740     8.9790 h4         1 49G       0.167000
     23 H8           5.2190     3.3510    11.1620 h1         1 49G       0.052700
     24 H9           3.6750     2.5100    10.9720 h1         1 49G       0.052700
     25 H10          5.1810     1.5860    11.0560 h1         1 49G       0.052700
     26 H11          3.0800    -0.5100     3.5710 hc         1 49G       0.055700
     27 H12          1.5480    -0.5090     4.4550 hc         1 49G       0.055700
     28 H13          2.5070     3.3970     6.1150 h1         1 49G       0.046200
     29 H14          3.9220     3.2920     5.0580 h1         1 49G       0.046200
     30 H15          2.9760     1.9530     3.3870 h1         1 49G       0.035200
     31 H16          1.4430     1.9540     4.2700 h1         1 49G       0.035200
     32 H17          2.6880     0.9240     6.1510 hn         1 49G       0.371800
     33 C8           4.7240     2.5030    10.7050 c3         1 49G       0.064600
@<TRIPOS>BOND
     1    33    14 1   
     2    14     7 1   
     3    14    13 1   
     4     7     6 2   
     5    13     9 2   
     6     6     9 1   
     7     9    11 1   
     8    11    15 1   
     9    15    12 1   
    10    12    10 1   
    11    10     8 1   
    12     4     8 ar  
    13     4     2 ar  
    14     8     5 ar  
    15     2     1 ar  
    16     5     3 ar  
    17     1     3 ar  
    18     1    16 1   
    19     2    17 1   
    20     3    18 1   
    21     4    19 1   
    22     5    20 1   
    23     6    21 1   
    24     7    22 1   
    25    33    23 1   
    26    33    24 1   
    27    33    25 1   
    28    10    26 1   
    29    10    27 1   
    30    11    28 1   
    31    11    29 1   
    32    12    30 1   
    33    12    31 1   
    34    15    32 1   
@<TRIPOS>SUBSTRUCTURE
     1 49G         1 TEMP              0 ****  ****    0 ROOT
