@<TRIPOS>MOLECULE
49H
   70    74     1     0     0
SMALL
bcc


@<TRIPOS>ATOM
      1 N            0.0000     0.0000     0.0000 n2         1 49H      -0.597900
      2 CG1          0.8250    -1.2400     3.1040 ca         1 49H      -0.135300
      3 CG2         -1.3240    -1.2390     1.6400 ca         1 49H      -0.076300
      4 CG3          2.0960     0.0010    -1.2390 ca         1 49H      -0.216900
      5 CD1          0.5390    -1.1630     4.4540 ca         1 49H      -0.083500
      6 CD2          1.1590    -2.4550     2.5350 ca         1 49H      -0.083500
      7 CD3         -2.4680    -1.1610     2.4110 ca         1 49H      -0.087000
      8 CD4         -0.9320    -2.4510     1.1030 ca         1 49H      -0.088000
      9 CD5          1.9360     1.0220    -2.1780 ca         1 49H       0.028000
     10 CD6          3.0280    -1.0190    -1.4730 ca         1 49H       0.262100
     11 CE1          0.5880    -2.3010     5.2370 ca         1 49H      -0.100500
     12 CE2          1.2080    -3.5930     3.3180 ca         1 49H      -0.100500
     13 CE3         -3.2220    -2.2970     2.6460 ca         1 49H      -0.033600
     14 CE4         -1.6860    -3.5870     1.3370 ca         1 49H      -0.093000
     15 CE5          2.6900     1.0220    -3.3300 ca         1 49H      -0.267000
     16 CE6          3.7820    -1.0090    -2.6350 ca         1 49H      -0.268000
     17 CZ1          0.9220    -3.5170     4.6690 ca         1 49H      -0.026600
     18 CZ2         -2.8300    -3.5100     2.1090 ca         1 49H      -0.094000
     19 CZ3          3.6140     0.0100    -3.5620 ca         1 49H       0.212100
     20 Cl1          0.9850    -4.9470     5.6520 cl         1 49H      -0.019400
     21 Cl2         -4.6600    -2.2010     3.6150 cl         1 49H      -0.029400
     22 CM1          4.1310     1.0930    -5.6120 c3         1 49H       0.244700
     23 CM2          4.6880    -3.5720     0.5180 c3         1 49H      -0.020100
     24 CM3          3.7510    -4.0450    -1.7490 c3         1 49H      -0.020100
     25 C1           3.1080     1.0300     4.9630 c          1 49H       0.606500
     26 N1           4.3270     1.5710     4.9510 ns         1 49H      -0.172900
     27 O1           2.3410     1.3550     5.8440 o          1 49H      -0.696500
     28 C2           5.3200     1.3490     3.9090 c3         1 49H       0.024000
     29 N2           3.5940     0.0290     2.8140 n          1 49H      -0.163800
     30 C3           5.0280     0.0530     3.1490 c3         1 49H       0.050000
     31 N3           1.8550     0.0000     1.2580 n          1 49H      -0.056300
     32 O3           4.3540     0.0170    -4.7000 os         1 49H      -0.308900
     33 C4           2.6380     0.0440     3.9300 c3         1 49H      -0.168000
     34 C5           3.1750     0.0000     1.5340 c          1 49H       0.629100
     35 O5           3.9840    -0.0260     0.6280 o          1 49H      -0.671100
     36 C6           1.2930     0.0000     0.0000 ce         1 49H       0.428500
     37 O6           3.1910    -2.0150    -0.5650 os         1 49H      -0.302900
     38 C7          -0.5060     0.0010     1.3790 c3         1 49H       0.193800
     39 C8           0.7660     0.0000     2.2490 c3         1 49H       0.021000
     40 C9           4.2460    -2.9470    -0.8070 c3         1 49H       0.166100
     41 HD1          0.2770    -0.2100     4.8980 ha         1 49H       0.136500
     42 HD2          1.3830    -2.5150     1.4760 ha         1 49H       0.136500
     43 HD3         -2.7750    -0.2110     2.8320 ha         1 49H       0.116000
     44 HD4         -0.0360    -2.5110     0.4980 ha         1 49H       0.126000
     45 HD5          1.2160     1.8120    -2.0010 ha         1 49H       0.108000
     46 HE1          0.3640    -2.2400     6.2950 ha         1 49H       0.121000
     47 HE2          1.4700    -4.5460     2.8730 ha         1 49H       0.121000
     48 HE4         -1.3790    -4.5360     0.9170 ha         1 49H       0.106000
     49 HE5          2.5640     1.8150    -4.0580 ha         1 49H       0.124000
     50 HE6          4.5030    -1.7960    -2.8190 ha         1 49H       0.139000
     51 HZ2         -3.4200    -4.4000     2.2930 ha         1 49H       0.114000
     52 HM11         4.3460     2.0340    -5.1200 h1         1 49H      -0.001633
     53 HM12         4.7800     0.9790    -6.4720 h1         1 49H      -0.001633
     54 HM13         3.0980     1.0830    -5.9370 h1         1 49H      -0.001633
     55 HM21         3.8280    -3.9960     1.0220 hc         1 49H       0.013033
     56 HM22         5.1370    -2.8110     1.1450 hc         1 49H       0.013033
     57 HM23         5.4140    -4.3530     0.3240 hc         1 49H       0.013033
     58 HM31         4.5270    -4.2820    -2.4670 hc         1 49H       0.013033
     59 HM32         3.5090    -4.9310    -1.1750 hc         1 49H       0.013033
     60 HM33         2.8680    -3.7010    -2.2720 hc         1 49H       0.013033
     61 H21          5.2980     2.1800     3.2150 h1         1 49H       0.024200
     62 H22          6.3020     1.2810     4.3620 h1         1 49H       0.024200
     63 H31          5.6160     0.0230     2.2400 h1         1 49H       0.044700
     64 H32          5.2700    -0.7980     3.7750 h1         1 49H       0.044700
     65 H41          2.5840    -0.9440     4.3720 h1         1 49H       0.110200
     66 H42          1.6620     0.3390     3.5660 h1         1 49H       0.110200
     67 H7          -1.0900     0.8940     1.5650 h1         1 49H       0.050700
     68 H8           0.8080     0.8940     2.8590 h1         1 49H       0.067700
     69 H9           5.0850    -2.4330    -1.2610 h1         1 49H       0.031700
     70 HN1          4.5770     2.1710     5.7110 hn         1 49H       0.184500
@<TRIPOS>BOND
     1     1    36 2   
     2     1    38 1   
     3     2     5 ar  
     4     2     6 ar  
     5     2    39 1   
     6     3     7 ar  
     7     3     8 ar  
     8     3    38 1   
     9     4     9 ar  
    10     4    10 ar  
    11     4    36 1   
    12     5    11 ar  
    13     5    41 1   
    14     6    12 ar  
    15     6    42 1   
    16     7    13 ar  
    17     7    43 1   
    18     8    14 ar  
    19     8    44 1   
    20     9    15 ar  
    21     9    45 1   
    22    10    16 ar  
    23    10    37 1   
    24    11    17 ar  
    25    11    46 1   
    26    12    17 ar  
    27    12    47 1   
    28    13    18 ar  
    29    13    21 1   
    30    14    18 ar  
    31    14    48 1   
    32    15    19 ar  
    33    15    49 1   
    34    16    19 ar  
    35    16    50 1   
    36    17    20 1   
    37    18    51 1   
    38    19    32 1   
    39    22    32 1   
    40    22    52 1   
    41    22    53 1   
    42    22    54 1   
    43    23    40 1   
    44    23    55 1   
    45    23    56 1   
    46    23    57 1   
    47    24    40 1   
    48    24    58 1   
    49    24    59 1   
    50    24    60 1   
    51    25    26 1   
    52    25    27 2   
    53    25    33 1   
    54    26    28 1   
    55    26    70 1   
    56    28    30 1   
    57    28    61 1   
    58    28    62 1   
    59    29    30 1   
    60    29    33 1   
    61    29    34 1   
    62    30    63 1   
    63    30    64 1   
    64    31    34 1   
    65    31    36 1   
    66    31    39 1   
    67    33    65 1   
    68    33    66 1   
    69    34    35 2   
    70    37    40 1   
    71    38    39 1   
    72    38    67 1   
    73    39    68 1   
    74    40    69 1   
@<TRIPOS>SUBSTRUCTURE
     1 49H         1 TEMP              0 ****  ****    0 ROOT
