@<TRIPOS>MOLECULE
49J
   42    45     1     0     0
SMALL
bcc


@<TRIPOS>ATOM
      1 CAJ          0.0000     0.0000     0.0000 c3         1 49J       0.074800
      2 CAH          1.5310     0.0000     0.0000 c3         1 49J       0.214900
      3 OAO          2.0030     0.0000     1.3500 os         1 49J      -0.409600
      4 CAI          1.5510    -1.1180     2.1180 c3         1 49J       0.214900
      5 CAK          0.0200    -1.1290     2.1410 c3         1 49J       0.074800
      6 NAX         -0.4840    -1.1620     0.7600 nh         1 49J      -0.264400
      7 CAU         -1.8700    -1.2280     0.7380 cc         1 49J       0.081600
      8 SAP         -2.9360    -0.1390    -0.0480 ss         1 49J       0.069900
      9 NAM         -4.3760    -0.9010     0.3950 nc         1 49J      -0.182500
     10 CAV         -4.0940    -1.9680     1.1280 ca         1 49J      -0.076300
     11 CAG         -5.0140    -2.8920     1.7070 ca         1 49J      -0.086000
     12 CAW         -2.6710    -2.1990     1.3470 ca         1 49J       0.147300
     13 NAL         -2.2770    -3.2670     2.0790 nb         1 49J      -0.522000
     14 CAE         -3.1280    -4.1050     2.5970 ca         1 49J       0.378200
     15 CAS         -4.5160    -3.9460     2.4410 cp         1 49J      -0.097300
     16 CAR         -5.4460    -4.9240     3.0560 cp         1 49J      -0.056000
     17 CAF         -4.9450    -5.9910     3.8000 ca         1 49J      -0.162000
     18 CAD         -6.8230    -4.7740     2.8950 ca         1 49J      -0.083000
     19 CAC         -7.6880    -5.6830     3.4680 ca         1 49J      -0.146000
     20 CAQ         -7.1900    -6.7490     4.2040 ca         1 49J       0.031600
     21 NAB         -8.0700    -7.6690     4.7840 nv         1 49J      -0.455200
     22 CAT         -5.8150    -6.9010     4.3710 ca         1 49J       0.086100
     23 OAN         -5.3290    -7.9440     5.0970 os         1 49J      -0.312900
     24 CAA         -3.9080    -8.0370     5.2270 c3         1 49J       0.246700
     25 H1          -0.3610     0.9100     0.4640 h1         1 49J       0.039700
     26 H2          -0.3610    -0.0600    -1.0200 h1         1 49J       0.039700
     27 H3           1.8920     0.8860    -0.5080 h1         1 49J       0.017450
     28 H4           1.8920    -0.8860    -0.5080 h1         1 49J       0.017450
     29 H5           1.9250    -1.0340     3.1310 h1         1 49J       0.017450
     30 H6           1.9120    -2.0350     1.6680 h1         1 49J       0.017450
     31 H7          -0.3270    -2.0080     2.6710 h1         1 49J       0.039700
     32 H8          -0.3410    -0.2360     2.6350 h1         1 49J       0.039700
     33 H12         -6.0820    -2.7610     1.5810 ha         1 49J       0.132000
     34 H13         -2.7560    -4.9400     3.1780 h4         1 49J      -0.014900
     35 H14         -3.8760    -6.1080     3.9290 ha         1 49J       0.127000
     36 H15         -7.2130    -3.9420     2.3220 ha         1 49J       0.113000
     37 H16         -8.7580    -5.5640     3.3430 ha         1 49J       0.111000
     38 H17         -8.9890    -7.3800     5.0550 hn         1 49J       0.270300
     39 H18         -7.7900    -8.6230     4.9030 hn         1 49J       0.270300
     40 H19         -3.5290    -7.1390     5.7000 h1         1 49J      -0.002633
     41 H20         -3.6570    -8.8980     5.8350 h1         1 49J      -0.002633
     42 H21         -3.4620    -8.1450     4.2460 h1         1 49J      -0.002633
@<TRIPOS>BOND
     1     1     2 1   
     2     1     6 1   
     3     1    25 1   
     4     1    26 1   
     5     2     3 1   
     6     2    27 1   
     7     2    28 1   
     8     3     4 1   
     9     4     5 1   
    10     4    29 1   
    11     4    30 1   
    12     5     6 1   
    13     5    31 1   
    14     5    32 1   
    15     6     7 1   
    16     7     8 1   
    17     7    12 2   
    18     8     9 1   
    19     9    10 2   
    20    10    11 ar  
    21    10    12 ar  
    22    11    15 ar  
    23    11    33 1   
    24    12    13 ar  
    25    13    14 ar  
    26    14    15 ar  
    27    14    34 1   
    28    15    16 1   
    29    16    17 ar  
    30    16    18 ar  
    31    17    22 ar  
    32    17    35 1   
    33    18    19 ar  
    34    18    36 1   
    35    19    20 ar  
    36    19    37 1   
    37    20    21 1   
    38    20    22 ar  
    39    21    38 1   
    40    21    39 1   
    41    22    23 1   
    42    23    24 1   
    43    24    40 1   
    44    24    41 1   
    45    24    42 1   
@<TRIPOS>SUBSTRUCTURE
     1 49J         1 TEMP              0 ****  ****    0 ROOT
