@<TRIPOS>MOLECULE
molecule
   42    45     1     0     0
SMALL
bcc


@<TRIPOS>ATOM
      1 CAJ          0.0000     0.0000     0.0000 c3         1 49J       0.116300
      2 CAH          1.5310     0.0000     0.0000 c3         1 49J       0.138900
      3 OAO          2.0030     0.0000     1.3500 os         1 49J      -0.422600
      4 CAI          1.5510    -1.1180     2.1180 c3         1 49J       0.138900
      5 CAK          0.0200    -1.1290     2.1410 c3         1 49J       0.116300
      6 NAX         -0.4840    -1.1620     0.7600 nh         1 49J      -0.532400
      7 CAU         -1.8700    -1.2280     0.7380 cc         1 49J       0.121600
      8 SAP         -2.9360    -0.1390    -0.0480 ss         1 49J       0.208900
      9 NAM         -4.3760    -0.9010     0.3950 nc         1 49J      -0.257500
     10 CAV         -4.0940    -1.9680     1.1280 ca         1 49J      -0.094300
     11 CAG         -5.0140    -2.8920     1.7070 ca         1 49J      -0.087000
     12 CAW         -2.6710    -2.1990     1.3470 ca         1 49J       0.200300
     13 NAL         -2.2770    -3.2670     2.0790 nb         1 49J      -0.643000
     14 CAE         -3.1280    -4.1050     2.5970 ca         1 49J       0.413200
     15 CAS         -4.5160    -3.9460     2.4410 cp         1 49J      -0.118300
     16 CAR         -5.4460    -4.9240     3.0560 cp         1 49J      -0.057000
     17 CAF         -4.9450    -5.9910     3.8000 ca         1 49J      -0.171000
     18 CAD         -6.8230    -4.7740     2.8950 ca         1 49J      -0.107000
     19 CAC         -7.6880    -5.6830     3.4680 ca         1 49J      -0.171000
     20 CAQ         -7.1900    -6.7490     4.2040 ca         1 49J       0.186600
     21 NAB         -8.0700    -7.6690     4.7840 nv         1 49J      -0.926200
     22 CAT         -5.8150    -6.9010     4.3710 ca         1 49J       0.077100
     23 OAN         -5.3290    -7.9440     5.0970 os         1 49J      -0.333900
     24 CAA         -3.9080    -8.0370     5.2270 c3         1 49J       0.130700
     25 H1          -0.3610     0.9100     0.4640 h1         1 49J       0.062700
     26 H2          -0.3610    -0.0600    -1.0200 h1         1 49J       0.062700
     27 H3           1.8920     0.8860    -0.5080 h1         1 49J       0.060200
     28 H4           1.8920    -0.8860    -0.5080 h1         1 49J       0.060200
     29 H5           1.9250    -1.0340     3.1310 h1         1 49J       0.060200
     30 H6           1.9120    -2.0350     1.6680 h1         1 49J       0.060200
     31 H7          -0.3270    -2.0080     2.6710 h1         1 49J       0.062700
     32 H8          -0.3410    -0.2360     2.6350 h1         1 49J       0.062700
     33 H12         -6.0820    -2.7610     1.5810 ha         1 49J       0.156000
     34 H13         -2.7560    -4.9400     3.1780 h4         1 49J       0.024100
     35 H14         -3.8760    -6.1080     3.9290 ha         1 49J       0.138000
     36 H15         -7.2130    -3.9420     2.3220 ha         1 49J       0.136000
     37 H16         -8.7580    -5.5640     3.3430 ha         1 49J       0.138000
     38 H17         -8.9890    -7.3800     5.0550 hn         1 49J       0.434300
     39 H18         -7.7900    -8.6230     4.9030 hn         1 49J       0.434300
     40 H19         -3.5290    -7.1390     5.7000 h1         1 49J       0.040700
     41 H20         -3.6570    -8.8980     5.8350 h1         1 49J       0.040700
     42 H21         -3.4620    -8.1450     4.2460 h1         1 49J       0.040700
@<TRIPOS>BOND
     1     1     2 1
     2     1     6 1
     3     2     3 1
     4     3     4 1
     5     4     5 1
     6     5     6 1
     7     6     7 1
     8     7     8 1
     9     7    12 2
    10     8     9 1
    11     9    10 2
    12    10    11 ar
    13    10    12 ar
    14    11    15 ar
    15    12    13 ar
    16    13    14 ar
    17    14    15 ar
    18    15    16 1
    19    16    17 ar
    20    16    18 ar
    21    17    22 ar
    22    18    19 ar
    23    19    20 ar
    24    20    21 1
    25    20    22 ar
    26    22    23 1
    27    23    24 1
    28     1    25 1
    29     1    26 1
    30     2    27 1
    31     2    28 1
    32     4    29 1
    33     4    30 1
    34     5    31 1
    35     5    32 1
    36    11    33 1
    37    14    34 1
    38    17    35 1
    39    18    36 1
    40    19    37 1
    41    21    38 1
    42    21    39 1
    43    24    40 1
    44    24    41 1
    45    24    42 1
@<TRIPOS>SUBSTRUCTURE
     1 49J         1 TEMP              0 ****  ****    0 ROOT
