@<TRIPOS>MOLECULE
49K
   36    37     1     0     0
SMALL
bcc


@<TRIPOS>ATOM
      1 CAM          0.0000     0.0000     0.0000 ca         1 49K      -0.069500
      2 CAN          1.3800     0.0000     0.0000 ca         1 49K      -0.130500
      3 CAO          2.0750     0.0000     1.1990 ca         1 49K       0.115900
      4 FAP          3.4250    -0.0010     1.1930 f          1 49K      -0.119900
      5 CAQ          1.3890     0.0000     2.4030 ca         1 49K      -0.130500
      6 CAR          0.0100    -0.0000     2.4140 ca         1 49K      -0.069500
      7 CAL         -0.6950     0.0000     1.2100 ca         1 49K      -0.029000
      8 CAK         -2.1740     0.0070     1.2160 cc         1 49K      -0.164300
      9 NAJ         -2.9890    -0.7630     0.4410 na         1 49K       0.475400
     10 NAI         -4.3140    -0.4420     0.7630 nc         1 49K      -0.634800
     11 CAH         -4.3030     0.4810     1.6920 cd         1 49K       0.404200
     12 CAG         -2.9770     0.7840     2.0030 cd         1 49K      -0.346600
     13 CAF         -2.5130     1.7890     3.0250 c3         1 49K       0.257100
     14 NAB         -2.1330     3.0350     2.3480 n3         1 49K      -0.526600
     15 CAA         -3.3020     3.6770     1.7320 c3         1 49K       0.163100
     16 CAC         -1.4560     3.9530     3.2740 c3         1 49K       0.148800
     17 CAD         -0.8570     5.1210     2.4880 c3         1 49K      -0.069200
     18 NAE         -0.1800     6.0390     3.4150 nz         1 49K       0.091400
     19 H1          -0.5430     0.0000    -0.9380 ha         1 49K       0.115000
     20 H2           1.9210    -0.0000    -0.9390 ha         1 49K       0.125500
     21 H3           1.9370    -0.0000     3.3380 ha         1 49K       0.125500
     22 H4          -0.5260    -0.0000     3.3560 ha         1 49K       0.115000
     23 H5          -2.6930    -1.4370    -0.2370 hn         1 49K       0.157700
     24 H6          -5.1780     0.9310     2.1460 h4         1 49K       0.007100
     25 H7          -3.3160     1.9890     3.7250 h1         1 49K       0.019200
     26 H8          -1.6580     1.3930     3.5600 h1         1 49K       0.019200
     27 H10         -3.9710     4.0310     2.5070 h1         1 49K       0.015700
     28 H11         -3.8210     2.9600     1.1070 h1         1 49K       0.015700
     29 H12         -2.9770     4.5150     1.1260 h1         1 49K       0.015700
     30 H13         -2.1710     4.3310     3.9950 h1         1 49K       0.022700
     31 H14         -0.6650     3.4240     3.7930 h1         1 49K       0.022700
     32 H15         -0.1430     4.7430     1.7670 hx         1 49K       0.095200
     33 H16         -1.6480     5.6500     1.9690 hx         1 49K       0.095200
     34 H17          0.1970     6.8120     2.9030 hn         1 49K       0.221800
     35 H18          0.5610     5.5550     3.8810 hn         1 49K       0.221800
     36 HAE3        -0.8370     6.3750     4.0910 hn         1 49K       0.221800
@<TRIPOS>BOND
     1     1     2 ar  
     2     1     7 ar  
     3     1    19 1   
     4     2     3 ar  
     5     2    20 1   
     6     3     4 1   
     7     3     5 ar  
     8     5     6 ar  
     9     5    21 1   
    10     6     7 ar  
    11     6    22 1   
    12     7     8 1   
    13     8     9 1   
    14     8    12 2   
    15     9    10 1   
    16     9    23 1   
    17    10    11 2   
    18    11    12 1   
    19    11    24 1   
    20    12    13 1   
    21    13    14 1   
    22    13    25 1   
    23    13    26 1   
    24    14    15 1   
    25    14    16 1   
    26    15    27 1   
    27    15    28 1   
    28    15    29 1   
    29    16    17 1   
    30    16    30 1   
    31    16    31 1   
    32    17    18 1   
    33    17    32 1   
    34    17    33 1   
    35    18    34 1   
    36    18    35 1   
    37    18    36 1   
@<TRIPOS>SUBSTRUCTURE
     1 49K         1 TEMP              0 ****  ****    0 ROOT
