@<TRIPOS>MOLECULE
molecule
   36    37     1     0     0
SMALL
bcc


@<TRIPOS>ATOM
      1 CAM          0.0000     0.0000     0.0000 ca         1 49K      -0.087500
      2 CAN          1.3800     0.0000     0.0000 ca         1 49K      -0.169500
      3 CAO          2.0750     0.0000     1.1990 ca         1 49K       0.146900
      4 FAP          3.4250    -0.0010     1.1930 f          1 49K      -0.128900
      5 CAQ          1.3890     0.0000     2.4030 ca         1 49K      -0.169500
      6 CAR          0.0100    -0.0000     2.4140 ca         1 49K      -0.087500
      7 CAL         -0.6950     0.0000     1.2100 ca         1 49K      -0.049000
      8 CAK         -2.1740     0.0070     1.2160 cc         1 49K       0.010700
      9 NAJ         -2.9890    -0.7630     0.4410 na         1 49K      -0.027600
     10 NAI         -4.3140    -0.4420     0.7630 nc         1 49K      -0.478800
     11 CAH         -4.3030     0.4810     1.6920 cd         1 49K       0.340200
     12 CAG         -2.9770     0.7840     2.0030 cd         1 49K      -0.322600
     13 CAF         -2.5130     1.7890     3.0250 c3         1 49K       0.251100
     14 NAB         -2.1330     3.0350     2.3480 n3         1 49K      -0.715600
     15 CAA         -3.3020     3.6770     1.7320 c3         1 49K       0.138100
     16 CAC         -1.4560     3.9530     3.2740 c3         1 49K       0.137800
     17 CAD         -0.8570     5.1210     2.4880 c3         1 49K       0.086800
     18 NAE         -0.1800     6.0390     3.4150 nz         1 49K      -0.810600
     19 H1          -0.5430     0.0000    -0.9380 ha         1 49K       0.143500
     20 H2           1.9210    -0.0000    -0.9390 ha         1 49K       0.154000
     21 H3           1.9370    -0.0000     3.3380 ha         1 49K       0.154000
     22 H4          -0.5260    -0.0000     3.3560 ha         1 49K       0.143500
     23 H5          -2.6930    -1.4370    -0.2370 hn         1 49K       0.343700
     24 H6          -5.1780     0.9310     2.1460 h4         1 49K       0.052100
     25 H7          -3.3160     1.9890     3.7250 h1         1 49K       0.047200
     26 H8          -1.6580     1.3930     3.5600 h1         1 49K       0.047200
     27 H10         -3.9710     4.0310     2.5070 h1         1 49K       0.046367
     28 H11         -3.8210     2.9600     1.1070 h1         1 49K       0.046367
     29 H12         -2.9770     4.5150     1.1260 h1         1 49K       0.046367
     30 H13         -2.1710     4.3310     3.9950 h1         1 49K       0.049700
     31 H14         -0.6650     3.4240     3.7930 h1         1 49K       0.049700
     32 H15         -0.1430     4.7430     1.7670 hx         1 49K       0.121200
     33 H16         -1.6480     5.6500     1.9690 hx         1 49K       0.121200
     34 H17          0.1970     6.8120     2.9030 hn         1 49K       0.456800
     35 H18          0.5610     5.5550     3.8810 hn         1 49K       0.456800
     36 HAE3        -0.8370     6.3750     4.0910 hn         1 49K       0.456800
@<TRIPOS>BOND
     1    18    17 1   
     2    17    16 1   
     3     4     3 1   
     4     2     3 ar  
     5     2     1 ar  
     6    16    14 1   
     7     3     5 ar  
     8     1     7 ar  
     9    15    14 1   
    10    14    13 1   
    11    13    12 1   
    12     5     6 ar  
    13     7     6 ar  
    14     7     8 1   
    15    12     8 2   
    16    12    11 1   
    17     8     9 1   
    18    11    10 2   
    19     9    10 1   
    20     1    19 1   
    21     2    20 1   
    22     5    21 1   
    23     6    22 1   
    24     9    23 1   
    25    11    24 1   
    26    13    25 1   
    27    13    26 1   
    28    15    27 1   
    29    15    28 1   
    30    15    29 1   
    31    16    30 1   
    32    16    31 1   
    33    17    32 1   
    34    17    33 1   
    35    18    34 1   
    36    18    35 1   
    37    36    18 1   
@<TRIPOS>SUBSTRUCTURE
     1 49K         1 TEMP              0 ****  ****    0 ROOT
