@<TRIPOS>MOLECULE
49L
   70    73     1     0     0
SMALL
bcc


@<TRIPOS>ATOM
      1 C1           0.0000     0.0000     0.0000 c3         1 49L       0.131800
      2 O1           0.5740   -10.5880     2.0310 os         1 49L      -0.399600
      3 C2           1.5300     0.0000     0.0000 c3         1 49L       0.143800
      4 N2           4.6930    -0.1670     4.8670 na         1 49L       0.449400
      5 C3           1.6720     1.2530     2.0670 c3         1 49L       0.163100
      6 C4           3.4700    -0.2390     1.4300 c3         1 49L       0.250100
      7 C5           3.8950    -0.4760     2.8560 cc         1 49L      -0.309600
      8 C6           4.4680     0.4310     3.6760 cd         1 49L      -0.265300
      9 C7           3.7650    -1.6830     3.5700 cc         1 49L       0.463800
     10 C8           3.1870    -2.9470     3.0510 ca         1 49L      -0.161500
     11 N1           2.0200     0.0000     1.3850 n3         1 49L      -0.534600
     12 N           -0.4900     0.0000    -1.3850 n7         1 49L      -0.583200
     13 C           -1.9580     0.0010    -1.4220 c3         1 49L       0.180100
     14 N3           4.2490    -1.4920     4.7790 nd         1 49L      -0.663800
     15 C24          2.1240    -2.9100     2.1500 ca         1 49L      -0.055000
     16 C23          1.5910    -4.0860     1.6650 ca         1 49L      -0.185000
     17 C11          2.1130    -5.3060     2.0740 ca         1 49L       0.151100
     18 C10          3.1710    -5.3460     2.9710 ca         1 49L      -0.185000
     19 C9           3.7080    -4.1730     3.4590 ca         1 49L      -0.055000
     20 O            1.5860    -6.4630     1.5940 os         1 49L      -0.284900
     21 C12          2.2470    -7.6770     1.9560 cy         1 49L       0.139100
     22 C15          1.4920    -8.5000     3.0120 cy         1 49L      -0.071400
     23 C14          0.7630    -9.1840     1.8440 cy         1 49L       0.158100
     24 C13          1.9870    -8.8360     0.9800 cy         1 49L      -0.071400
     25 C17         -0.6950   -12.6100     1.6600 c3         1 49L      -0.032400
     26 C18         -1.9480   -13.1650     0.9780 c3         1 49L      -0.043700
     27 C22         -2.1190   -14.6430     1.3450 c3         1 49L      -0.069400
     28 C21         -3.3270   -15.2100     0.5980 c3         1 49L       0.215900
     29 O2          -3.1420   -15.0350    -0.8090 os         1 49L      -0.409600
     30 C20         -3.0250   -13.6710    -1.2160 c3         1 49L       0.215900
     31 C19         -1.8030   -13.0410    -0.5410 c3         1 49L      -0.069400
     32 H1          -0.3610    -0.8840     0.5110 h1         1 49L       0.015700
     33 H2          -0.3610     0.8840     0.5110 h1         1 49L       0.015700
     34 H3           1.8910    -0.8840    -0.5110 h1         1 49L       0.015700
     35 H4           1.8910     0.8840    -0.5110 h1         1 49L       0.015700
     36 H5           5.1080     0.2620     5.6700 hn         1 49L       0.146700
     37 H6           2.0100     2.0940     1.4730 h1         1 49L       0.006367
     38 H7           2.1500     1.2800     3.0380 h1         1 49L       0.006367
     39 H8           0.5970     1.3090     2.1920 h1         1 49L       0.006367
     40 H9           3.7110    -1.1090     0.8310 h1         1 49L       0.013700
     41 H10          3.9900     0.6260     1.0370 h1         1 49L       0.013700
     42 H11          4.7020     1.4590     3.4250 h4         1 49L       0.143000
     43 H13         -0.1440     0.8090    -1.8610 hn         1 49L       0.247800
     44 H15         -2.3330    -0.8740    -0.9050 h1         1 49L      -0.001633
     45 H16         -2.3310     0.8950    -0.9380 h1         1 49L      -0.001633
     46 H17         -2.2930    -0.0180    -2.4520 h1         1 49L      -0.001633
     47 H18          1.7160    -1.9580     1.8310 ha         1 49L       0.133500
     48 H19          0.7650    -4.0570     0.9650 ha         1 49L       0.119500
     49 H20          3.5760    -6.3000     3.2880 ha         1 49L       0.119500
     50 H21          4.5340    -4.2050     4.1590 ha         1 49L       0.133500
     51 H22          3.2980    -7.5580     2.1920 h1         1 49L       0.037700
     52 H23          2.1350    -9.1740     3.5640 hc         1 49L       0.040200
     53 H24          0.8340    -7.8980     3.6280 hc         1 49L       0.040200
     54 H25         -0.1290    -8.6510     1.5390 h1         1 49L       0.037700
     55 H26          1.7210    -8.5000    -0.0150 hc         1 49L       0.040200
     56 H27          2.7570    -9.5970     1.0100 hc         1 49L       0.040200
     57 H28         -0.5340   -10.9320     0.3280 h1         1 49L      -0.005800
     58 H29         -1.4730   -10.6110     1.7920 h1         1 49L      -0.005800
     59 H30          0.1820   -13.1060     1.2620 hc         1 49L       0.025700
     60 H31         -0.7570   -12.7860     2.7270 hc         1 49L       0.025700
     61 H32         -2.8200   -12.6100     1.3040 hc         1 49L       0.028700
     62 H33         -1.2290   -15.1910     1.0590 hc         1 49L       0.026200
     63 H34         -2.2790   -14.7340     2.4120 hc         1 49L       0.026200
     64 H35         -4.2220   -14.6860     0.9110 h1         1 49L       0.006200
     65 H36         -3.4250   -16.2660     0.8190 h1         1 49L       0.006200
     66 H37         -3.9160   -13.1290    -0.9230 h1         1 49L       0.006200
     67 H38         -2.9050   -13.6250    -2.2920 h1         1 49L       0.006200
     68 H39         -0.9070   -13.5590    -0.8610 hc         1 49L       0.026200
     69 H40         -1.7390   -11.9940    -0.8130 hc         1 49L       0.026200
     70 C16         -0.5960   -11.1070     1.3950 c3         1 49L       0.203400
@<TRIPOS>BOND
     1     1     3 1   
     2     1    12 1   
     3     1    32 1   
     4     1    33 1   
     5     2    23 1   
     6     2    70 1   
     7     3    11 1   
     8     3    34 1   
     9     3    35 1   
    10     4     8 1   
    11     4    14 1   
    12     4    36 1   
    13     5    11 1   
    14     5    37 1   
    15     5    38 1   
    16     5    39 1   
    17     6     7 1   
    18     6    11 1   
    19     6    40 1   
    20     6    41 1   
    21     7     8 2   
    22     7     9 1   
    23     8    42 1   
    24     9    10 1   
    25     9    14 2   
    26    10    15 ar  
    27    10    19 ar  
    28    12    13 1   
    29    12    43 1   
    30    13    44 1   
    31    13    45 1   
    32    13    46 1   
    33    15    16 ar  
    34    15    47 1   
    35    16    17 ar  
    36    16    48 1   
    37    17    18 ar  
    38    17    20 1   
    39    18    19 ar  
    40    18    49 1   
    41    19    50 1   
    42    20    21 1   
    43    21    22 1   
    44    21    24 1   
    45    21    51 1   
    46    22    23 1   
    47    22    52 1   
    48    22    53 1   
    49    23    24 1   
    50    23    54 1   
    51    24    55 1   
    52    24    56 1   
    53    25    26 1   
    54    25    59 1   
    55    25    60 1   
    56    25    70 1   
    57    26    27 1   
    58    26    31 1   
    59    26    61 1   
    60    27    28 1   
    61    27    62 1   
    62    27    63 1   
    63    28    29 1   
    64    28    64 1   
    65    28    65 1   
    66    29    30 1   
    67    30    31 1   
    68    30    66 1   
    69    30    67 1   
    70    31    68 1   
    71    31    69 1   
    72    57    70 1   
    73    58    70 1   
@<TRIPOS>SUBSTRUCTURE
     1 49L         1 TEMP              0 ****  ****    0 ROOT
