@<TRIPOS>MOLECULE
molecule
   70    73     1     0     0
SMALL
bcc


@<TRIPOS>ATOM
      1 C1           0.0000     0.0000     0.0000 c3         1 49L       0.153800
      2 O1           0.5740   -10.5880     2.0310 os         1 49L      -0.419600
      3 C2           1.5300     0.0000     0.0000 c3         1 49L       0.155800
      4 N2           4.6930    -0.1670     4.8670 na         1 49L      -0.045600
      5 C3           1.6720     1.2530     2.0670 c3         1 49L       0.146100
      6 C4           3.4700    -0.2390     1.4300 c3         1 49L       0.242100
      7 C5           3.8950    -0.4760     2.8560 cc         1 49L      -0.293600
      8 C6           4.4680     0.4310     3.6760 cd         1 49L      -0.114300
      9 C7           3.7650    -1.6830     3.5700 cc         1 49L       0.425800
     10 C8           3.1870    -2.9470     3.0510 ca         1 49L      -0.160500
     11 N1           2.0200     0.0000     1.3850 n3         1 49L      -0.732600
     12 N           -0.4900     0.0000    -1.3850 n7         1 49L      -0.821200
     13 C           -1.9580     0.0010    -1.4220 c3         1 49L       0.149100
     14 N3           4.2490    -1.4920     4.7790 nd         1 49L      -0.509800
     15 C24          2.1240    -2.9100     2.1500 ca         1 49L      -0.072000
     16 C23          1.5910    -4.0860     1.6650 ca         1 49L      -0.200500
     17 C11          2.1130    -5.3060     2.0740 ca         1 49L       0.146100
     18 C10          3.1710    -5.3460     2.9710 ca         1 49L      -0.200500
     19 C9           3.7080    -4.1730     3.4590 ca         1 49L      -0.072000
     20 O            1.5860    -6.4630     1.5940 os         1 49L      -0.312900
     21 C12          2.2470    -7.6770     1.9560 cy         1 49L       0.109100
     22 C15          1.4920    -8.5000     3.0120 cy         1 49L      -0.114900
     23 C14          0.7630    -9.1840     1.8440 cy         1 49L       0.123100
     24 C13          1.9870    -8.8360     0.9800 cy         1 49L      -0.114900
     25 C17         -0.6950   -12.6100     1.6600 c3         1 49L      -0.076400
     26 C18         -1.9480   -13.1650     0.9780 c3         1 49L      -0.070700
     27 C22         -2.1190   -14.6430     1.3450 c3         1 49L      -0.114900
     28 C21         -3.3270   -15.2100     0.5980 c3         1 49L       0.137400
     29 O2          -3.1420   -15.0350    -0.8090 os         1 49L      -0.421600
     30 C20         -3.0250   -13.6710    -1.2160 c3         1 49L       0.137400
     31 C19         -1.8030   -13.0410    -0.5410 c3         1 49L      -0.114900
     32 H1          -0.3610    -0.8840     0.5110 h1         1 49L       0.039200
     33 H2          -0.3610     0.8840     0.5110 h1         1 49L       0.039200
     34 H3           1.8910    -0.8840    -0.5110 h1         1 49L       0.041200
     35 H4           1.8910     0.8840    -0.5110 h1         1 49L       0.041200
     36 H5           5.1080     0.2620     5.6700 hn         1 49L       0.329700
     37 H6           2.0100     2.0940     1.4730 h1         1 49L       0.034033
     38 H7           2.1500     1.2800     3.0380 h1         1 49L       0.034033
     39 H8           0.5970     1.3090     2.1920 h1         1 49L       0.034033
     40 H9           3.7110    -1.1090     0.8310 h1         1 49L       0.041700
     41 H10          3.9900     0.6260     1.0370 h1         1 49L       0.041700
     42 H11          4.7020     1.4590     3.4250 h4         1 49L       0.167000
     43 H13         -0.1440     0.8090    -1.8610 hn         1 49L       0.348800
     44 H15         -2.3330    -0.8740    -0.9050 h1         1 49L       0.031367
     45 H16         -2.3310     0.8950    -0.9380 h1         1 49L       0.031367
     46 H17         -2.2930    -0.0180    -2.4520 h1         1 49L       0.031367
     47 H18          1.7160    -1.9580     1.8310 ha         1 49L       0.162500
     48 H19          0.7650    -4.0570     0.9650 ha         1 49L       0.141000
     49 H20          3.5760    -6.3000     3.2880 ha         1 49L       0.141000
     50 H21          4.5340    -4.2050     4.1590 ha         1 49L       0.162500
     51 H22          3.2980    -7.5580     2.1920 h1         1 49L       0.066700
     52 H23          2.1350    -9.1740     3.5640 hc         1 49L       0.072200
     53 H24          0.8340    -7.8980     3.6280 hc         1 49L       0.072200
     54 H25         -0.1290    -8.6510     1.5390 h1         1 49L       0.070700
     55 H26          1.7210    -8.5000    -0.0150 hc         1 49L       0.072200
     56 H27          2.7570    -9.5970     1.0100 hc         1 49L       0.072200
     57 H28         -0.5340   -10.9320     0.3280 h1         1 49L       0.024700
     58 H29         -1.4730   -10.6110     1.7920 h1         1 49L       0.024700
     59 H30          0.1820   -13.1060     1.2620 hc         1 49L       0.055700
     60 H31         -0.7570   -12.7860     2.7270 hc         1 49L       0.055700
     61 H32         -2.8200   -12.6100     1.3040 hc         1 49L       0.050700
     62 H33         -1.2290   -15.1910     1.0590 hc         1 49L       0.052700
     63 H34         -2.2790   -14.7340     2.4120 hc         1 49L       0.052700
     64 H35         -4.2220   -14.6860     0.9110 h1         1 49L       0.045950
     65 H36         -3.4250   -16.2660     0.8190 h1         1 49L       0.045950
     66 H37         -3.9160   -13.1290    -0.9230 h1         1 49L       0.045950
     67 H38         -2.9050   -13.6250    -2.2920 h1         1 49L       0.045950
     68 H39         -0.9070   -13.5590    -0.8610 hc         1 49L       0.052700
     69 H40         -1.7390   -11.9940    -0.8130 hc         1 49L       0.052700
     70 C16         -0.5960   -11.1070     1.3950 c3         1 49L       0.135400
@<TRIPOS>BOND
     1    13    12 1
     2    25    70 1
     3    25    26 1
     4    70     2 1
     5    12     1 1
     6    22    21 1
     7    22    23 1
     8    30    31 1
     9    30    29 1
    10    31    26 1
    11     2    23 1
    12    21    24 1
    13    21    20 1
    14    26    27 1
    15     1     3 1
    16    23    24 1
    17    29    28 1
    18    28    27 1
    19    20    17 1
    20     3    11 1
    21    16    17 ar
    22    16    15 ar
    23    17    18 ar
    24    15    10 ar
    25     5    11 1
    26    11     6 1
    27     6     7 1
    28    18    19 ar
    29    10    19 ar
    30    10     9 1
    31     7     9 1
    32     7     8 2
    33     9    14 2
    34     8     4 1
    35    14     4 1
    36     1    32 1
    37     1    33 1
    38     3    34 1
    39     3    35 1
    40     4    36 1
    41     5    37 1
    42     5    38 1
    43     5    39 1
    44     6    40 1
    45     6    41 1
    46     8    42 1
    47    12    43 1
    48    13    44 1
    49    13    45 1
    50    13    46 1
    51    15    47 1
    52    16    48 1
    53    18    49 1
    54    19    50 1
    55    21    51 1
    56    22    52 1
    57    22    53 1
    58    23    54 1
    59    24    55 1
    60    24    56 1
    61    70    57 1
    62    70    58 1
    63    25    59 1
    64    25    60 1
    65    26    61 1
    66    27    62 1
    67    27    63 1
    68    28    64 1
    69    28    65 1
    70    30    66 1
    71    30    67 1
    72    31    68 1
    73    31    69 1
@<TRIPOS>SUBSTRUCTURE
     1 49L         1 TEMP              0 ****  ****    0 ROOT
