@<TRIPOS>MOLECULE
molecule
   28    29     1     0     0
SMALL
bcc


@<TRIPOS>ATOM
      1 C10          0.0000     0.0000     0.0000 ca         1 49N      -0.268300
      2 C5           1.3890     0.0000     0.0000 ca         1 49N      -0.048000
      3 C9          -0.6770     0.0060     1.2030 ca         1 49N       0.455200
      4 C2           2.0480     0.0000     1.2160 ca         1 49N      -0.280600
      5 C1           1.3030     0.0010     2.3900 ca         1 49N       0.649200
      6 C14          2.4260     1.2120     5.6930 c3         1 49N       0.157300
      7 C15          2.4200    -1.2090     5.6960 c3         1 49N       0.157300
      8 C7           1.6310     1.2130     4.3850 c3         1 49N       0.170800
      9 C8           1.6250    -1.2070     4.3880 c3         1 49N       0.170800
     10 C6           3.5550    -0.0000     1.2680 c3         1 49N       0.692200
     11 N4          -0.0210     0.0070     2.3490 nb         1 49N      -0.724000
     12 N16          2.0990     0.0040     6.4620 n7         1 49N      -0.822200
     13 N3           1.9530     0.0010     3.6190 nh         1 49N      -0.726300
     14 F11          4.0650    -0.0010    -0.0350 f          1 49N      -0.221633
     15 F12          3.9980     1.1430     1.9410 f          1 49N      -0.221633
     16 F13          3.9970    -1.1420     1.9430 f          1 49N      -0.221633
     17 H1          -0.5470    -0.0000    -0.9350 ha         1 49N       0.147000
     18 H2           1.9430    -0.0030    -0.9310 ha         1 49N       0.159000
     19 H3          -1.7600     0.0080     1.2070 h4         1 49N       0.029100
     20 H5           2.1660     2.0900     6.2730 h1         1 49N       0.041950
     21 H6           3.4800    -1.2230     5.4730 h1         1 49N       0.041950
     22 H7           2.1560    -2.0830     6.2780 h1         1 49N       0.041950
     23 H8           0.5710     1.2270     4.6080 h1         1 49N       0.055200
     24 H9           1.8960     2.0870     3.8040 h1         1 49N       0.055200
     25 H10          1.8840    -2.0850     3.8080 h1         1 49N       0.055200
     26 H11          0.5650    -1.2150     4.6120 h1         1 49N       0.055200
     27 H12          2.6150     0.0040     7.3190 hn         1 49N       0.355800
     28 H4           3.4860     1.2210     5.4700 h1         1 49N       0.041950
@<TRIPOS>BOND
     1    12     6 1   
     2    12     7 1   
     3     6     8 1   
     4     7     9 1   
     5    16    10 1   
     6     8    13 1   
     7     9    13 1   
     8    13     5 1   
     9    15    10 1   
    10    10    14 1   
    11    10     4 1   
    12     5     4 ar  
    13     5    11 ar  
    14     4     2 ar  
    15    11     3 ar  
    16     2     1 ar  
    17     3     1 ar  
    18     1    17 1   
    19     2    18 1   
    20     3    19 1   
    21     6    28 1   
    22     6    20 1   
    23     7    21 1   
    24     7    22 1   
    25     8    23 1   
    26     8    24 1   
    27     9    25 1   
    28     9    26 1   
    29    12    27 1   
@<TRIPOS>SUBSTRUCTURE
     1 49N         1 TEMP              0 ****  ****    0 ROOT
