@<TRIPOS>MOLECULE
molecule
   26    27     1     0     0
SMALL
bcc


@<TRIPOS>ATOM
      1 C8           3.4790    -0.0010     1.2880 cg         1 49O       0.236800
      2 C12          0.0000     0.0000     0.0000 ca         1 49O      -0.278300
      3 C7           1.3830     0.0000     0.0000 ca         1 49O      -0.087000
      4 C9          -0.6820     0.0060     1.2040 ca         1 49O       0.463200
      5 C3           2.0480     0.0000     1.2320 ca         1 49O      -0.135300
      6 C1           1.2860     0.0010     2.4120 ca         1 49O       0.547200
      7 C10          2.3730     1.2130     5.7210 c3         1 49O      -0.023700
      8 C11          2.3650    -1.2080     5.7240 c3         1 49O      -0.023700
      9 C5           1.5920     1.2130     4.4050 c3         1 49O      -0.166700
     10 C6           1.5830    -1.2070     4.4080 c3         1 49O      -0.166700
     11 N13          4.6140    -0.0180     1.3430 n1         1 49O      -0.344800
     12 N4          -0.0380     0.0070     2.3540 nb         1 49O      -0.618000
     13 N14          2.0370     0.0050     6.4870 n7         1 49O      -0.890200
     14 N2           1.9200     0.0000     3.6430 nh         1 49O      -0.527300
     15 H1          -0.1810     0.2110    -1.0470 ha         1 49O       0.157000
     16 H2           2.0860     0.1160    -0.8160 ha         1 49O       0.151000
     17 H3          -1.6720     0.2090     0.8140 h4         1 49O       0.048100
     18 H4           2.2100     0.5420     6.5560 h1         1 49O       0.193200
     19 H5           2.5980     2.2290     6.0220 h1         1 49O       0.193200
     20 H6           2.1720    -2.1950     6.1280 h1         1 49O       0.193200
     21 H7           1.8560    -0.5960     6.4580 h1         1 49O       0.193200
     22 H8           1.7770     0.3710     3.7470 h1         1 49O       0.143200
     23 H9           1.7330     2.0250     3.7020 h1         1 49O       0.143200
     24 H10          1.6770    -0.2170     3.9800 h1         1 49O       0.143200
     25 H11          2.0100    -1.8530     3.6500 h1         1 49O       0.143200
     26 H12          2.4230    -0.7780     5.9980 hn         1 49O       0.312800
@<TRIPOS>BOND
     1    13     8 1   
     2    13     7 1   
     3     8    10 1   
     4     7     9 1   
     5    10    14 1   
     6     9    14 1   
     7    11     1 3   
     8    14     6 1   
     9     1     5 1   
    10     6     5 ar  
    11     6    12 ar  
    12     5     3 ar  
    13    12     4 ar  
    14     3     2 ar  
    15     4     2 ar  
    16     2    15 1   
    17     3    16 1   
    18     4    17 1   
    19     7    18 1   
    20     7    19 1   
    21     8    20 1   
    22     8    21 1   
    23     9    22 1   
    24     9    23 1   
    25    10    24 1   
    26    10    25 1   
    27    13    26 1   
@<TRIPOS>SUBSTRUCTURE
     1 49O         1 TEMP              0 ****  ****    0 ROOT
