@<TRIPOS>MOLECULE
49O
   26    25     1     0     0
SMALL
bcc


@<TRIPOS>ATOM
      1 C8          2.9660   -0.6670    1.4700 cg        1 49O      0.244800
      2 C12         0.3740    0.9430   -0.6310 ca        1 49O     -0.318300
      3 C7          1.4650    0.1700   -0.2580 ca        1 49O     -0.007000
      4 C9         -0.3000    1.6600    0.3780 ca        1 49O      0.469200
      5 C3          1.8570    0.1250    1.0870 ca        1 49O     -0.228300
      6 C1          1.1140    0.8880    2.0580 ca        1 49O      0.714200
      7 C10         1.0650    1.3630    5.7400 c2        1 49O     -0.037000
      8 C11         3.5520   -2.4060    5.4700 c2        1 49O     -0.227000
      9 C5          0.8880    1.5790    4.4080 c2        1 49O     -0.036000
     10 C6          2.4050   -2.8780    5.9410 c2        1 49O     -0.227000
     11 N13         3.8770   -1.3250    1.7740 n1        1 49O     -0.383800
     12 N4          0.0310    1.6530    1.6710 nb        1 49O     -0.729000
     13 N14         1.9280    0.4550    6.3450 nh        1 49O     -0.818600
     14 N2          1.4860    0.8320    3.3910 nh        1 49O     -0.727700
     15 H1          0.0420    1.0000   -1.6730 ha        1 49O      0.151000
     16 H2          2.0270   -0.4100   -1.0070 ha        1 49O      0.147000
     17 H3         -1.1760    2.2900    0.1290 h4        1 49O      0.026100
     18 H4          0.5520    2.0520    6.4390 h4        1 49O      0.145000
     19 H5          1.6790    0.2520    7.2890 hn        1 49O      0.381800
     20 H6          4.2220   -1.7720    6.0670 ha        1 49O      0.114750
     21 H7          2.1020   -0.3820    5.8260 hn        1 49O      0.381800
     22 H8          0.2140    2.3920    4.0800 h4        1 49O      0.173000
     23 H9          2.3080    0.3150    3.6060 hn        1 49O      0.446800
     24 H10         2.0510   -2.6700    6.9600 ha        1 49O      0.114750
     25 H11         1.7370   -3.5180    5.3480 ha        1 49O      0.114750
     26 H12         3.9120   -2.6220    4.4540 ha        1 49O      0.114750
@<TRIPOS>BOND
     1    1    5 1   
     2    1   11 3   
     3    2    3 ar  
     4    2    4 ar  
     5    2   15 1   
     6    3    5 ar  
     7    3   16 1   
     8    4   12 ar  
     9    4   17 1   
    10    5    6 ar  
    11    6   12 ar  
    12    6   14 1   
    13    7    9 2   
    14    7   13 1   
    15    7   18 1   
    16    8   10 2   
    17    8   20 1   
    18    8   26 1   
    19    9   14 1   
    20    9   22 1   
    21   10   24 1   
    22   10   25 1   
    23   13   19 1   
    24   13   21 1   
    25   14   23 1   
@<TRIPOS>SUBSTRUCTURE
     1 49O         1 TEMP              0 ****  ****    0 ROOT
