@<TRIPOS>MOLECULE
molecule
   23    24     1     0     0
SMALL
bcc


@<TRIPOS>ATOM
      1 C16          0.0000     0.0000     0.0000 ca         1 49P      -0.109000
      2 C15          1.3820     0.0000     0.0000 ca         1 49P      -0.099000
      3 C14         -0.6930     0.0020     1.1960 ca         1 49P      -0.134000
      4 C9           1.3900     0.0010     2.3950 ca         1 49P      -0.084000
      5 C6          -1.0990     0.0570     5.7730 cc         1 49P       0.329200
      6 C3          -2.0480    -0.0920     3.7600 cc         1 49P      -0.130300
      7 C8           2.0760     0.0000     1.1960 ca         1 49P      -0.160300
      8 C7           0.0020    -0.0030     2.3980 ca         1 49P       0.043800
      9 C5          -2.3180    -0.0540     5.0890 cd         1 49P      -0.105200
     10 C4           3.5840    -0.0000     1.1920 c3         1 49P       0.676200
     11 N2          -0.1330     0.0920     4.8910 nd         1 49P      -0.494800
     12 N1          -0.6980    -0.0020     3.6130 na         1 49P       0.145300
     13 F10          4.0520     1.1420     1.8500 f          1 49P      -0.220300
     14 F11          4.0510    -1.1420     1.8520 f          1 49P      -0.220300
     15 F12          4.0460    -0.0010    -0.1280 f          1 49P      -0.220300
     16 H1          -0.5410     0.0020    -0.9390 ha         1 49P       0.146000
     17 H2           1.9230    -0.0010    -0.9390 ha         1 49P       0.155000
     18 H3          -1.7760     0.0000     1.1950 ha         1 49P       0.142000
     19 H4           1.9350    -0.0010     3.3310 ha         1 49P       0.174000
     20 H5          -0.9780     0.1110     6.8480 h4         1 49P       0.061100
     21 H6          -2.7750    -0.1750     2.9610 h4         1 49P       0.182000
     22 H7          -3.8950     0.7560     5.7640 ho         1 49P       0.411000
     23 O13         -3.5540    -0.1170     5.6580 oh         1 49P      -0.487100
@<TRIPOS>BOND
     1    13    10 1   
     2     2     1 ar  
     3     2     7 ar  
     4     1     3 ar  
     5    10     7 1   
     6    10    15 1   
     7    10    14 1   
     8     7     4 ar  
     9     3     8 ar  
    10     4     8 ar  
    11     8    12 1   
    12    12     6 1   
    13    12    11 1   
    14     6     9 2   
    15    11     5 2   
    16     9     5 1   
    17     9    23 1   
    18     1    16 1   
    19     2    17 1   
    20     3    18 1   
    21     4    19 1   
    22     5    20 1   
    23     6    21 1   
    24    23    22 1   
@<TRIPOS>SUBSTRUCTURE
     1 49P         1 TEMP              0 ****  ****    0 ROOT
