@<TRIPOS>MOLECULE
49P
   23    22     1     0     0
SMALL
bcc


@<TRIPOS>ATOM
      1 C16        -0.3720   -1.0620   -0.2130 c2        1 49P     -0.147000
      2 C15         0.7030    2.2730    0.7000 c1        1 49P      0.324000
      3 C14         0.1050   -1.7410    0.8280 c2        1 49P     -0.212000
      4 C9          0.7950    0.4010    2.1690 c2        1 49P     -0.281000
      5 C6         -3.3570    0.5870    7.0430 c1        1 49P      0.163000
      6 C3          0.0630    0.4450    3.3350 c1        1 49P     -0.106000
      7 C8          1.4510    1.3830    1.3520 c2        1 49P     -0.392000
      8 C7          0.7930   -1.1180    1.9790 c3        1 49P      0.063000
      9 C5         -2.5610    0.8970    6.0230 c2        1 49P     -0.319000
     10 C4          2.9760    1.3630    1.3260 c3        1 49P      0.498000
     11 N2         -0.5190   -1.9550    3.9370 n2        1 49P     -0.040000
     12 N1         -0.0290   -1.0570    3.2820 n3        1 49P      0.037000
     13 F10         3.5650    1.9660    2.4070 f         1 49P     -0.161000
     14 F11         3.5310    0.1080    1.2900 f         1 49P     -0.161000
     15 F12         3.5260    2.0020    0.2400 f         1 49P     -0.161000
     16 H1          0.0370   -2.8420    0.8790 ha        1 49P      0.142000
     17 H2         -0.8400   -1.5650   -1.0710 ha        1 49P      0.126500
     18 H3         -0.3160    0.0350   -0.2860 ha        1 49P      0.126500
     19 H4          1.7900   -1.6080    2.1530 h1        1 49P      0.145000
     20 H5         -1.0220   -1.6430    4.7730 hn        1 49P      0.215000
     21 H6         -2.8710    1.7120    5.3380 h4        1 49P      0.167000
     22 H7         -0.8660    0.8390    5.1300 ho        1 49P      0.267000
     23 O13        -1.3760    0.2570    5.7360 oh        1 49P     -0.295000
@<TRIPOS>BOND
     1    1    3 1   
     2    1   17 1   
     3    1   18 1   
     4    2    7 1   
     5    3    8 1   
     6    3   16 1   
     7    4    6 1   
     8    4    7 1   
     9    4    8 1   
    10    5    9 1   
    11    6   12 1   
    12    7   10 1   
    13    8   12 1   
    14    8   19 1   
    15    9   21 1   
    16    9   23 1   
    17   10   13 1   
    18   10   14 1   
    19   10   15 1   
    20   11   12 1   
    21   11   20 1   
    22   22   23 1   
@<TRIPOS>SUBSTRUCTURE
     1 49P         1 TEMP              0 ****  ****    0 ROOT
