@<TRIPOS>MOLECULE
49Q
   36    33     1     0     0
SMALL
bcc


@<TRIPOS>ATOM
      1 C17        -2.1250   -0.3010    4.2780 c1        1 49Q     -0.026000
      2 C14         0.5190   -1.7220    0.0480 c2        1 49Q     -0.160000
      3 C15        -0.8210    0.0290    4.7230 c2        1 49Q     -0.555000
      4 C11         1.0830   -1.4910    1.1930 c1        1 49Q     -0.140000
      5 C12        -0.5910    0.5520    5.9170 c1        1 49Q      0.349000
      6 C5          6.4390    4.9590    9.1390 c1        1 49Q     -0.157000
      7 C6          5.8160    1.3980    3.4390 c1        1 49Q      0.176000
      8 C2          6.9940    6.0930    9.4380 c2        1 49Q     -0.176000
      9 C3          4.6760    1.1530    3.9250 c1        1 49Q     -0.703000
     10 C8          5.9000    3.8140    8.8290 c2        1 49Q     -0.127000
     11 C9          1.6460   -1.2840    2.3490 c2        1 49Q     -0.156000
     12 C1          3.4870    0.9270    4.4910 c2        1 49Q      0.311000
     13 C7          2.6720   -0.2290    2.5720 c3        1 49Q      0.009000
     14 C13         3.8540    2.7110    7.9800 c3        1 49Q     -0.166000
     15 C16         2.4100    2.3680    8.3060 c3        1 49Q     -0.017000
     16 O18         1.8990    1.6360    7.2010 oh        1 49Q     -0.369000
     17 O4          2.4660    0.2640    3.9190 os        1 49Q     -0.216000
     18 H1          0.0790   -0.1360    4.0760 ha        1 49Q      0.193000
     19 H2         -0.4310   -1.2500   -0.2460 ha        1 49Q      0.141500
     20 H3         -2.1840   -0.7240    3.2620 ha        1 49Q      0.041000
     21 H4          0.9590   -2.4040   -0.6960 ha        1 49Q      0.141500
     22 H5          1.4060   -1.9110    3.2260 ha        1 49Q      0.154000
     23 H6          6.9900    6.9490    8.7470 ha        1 49Q      0.131000
     24 H7          6.4950    3.0380    8.3140 ha        1 49Q      0.143000
     25 H8          7.5020    6.2640   10.3980 ha        1 49Q      0.131000
     26 H9          3.1880    1.2610    5.5150 h4        1 49Q      0.205000
     27 H10         4.4850    2.7940   10.0520 hc        1 49Q      0.089000
     28 H11         3.8900    4.3650    9.3800 hc        1 49Q      0.089000
     29 H12         3.7090   -0.6550    2.4880 h1        1 49Q      0.118500
     30 H13         2.5630    0.6430    1.8750 h1        1 49Q      0.118500
     31 H14         4.4200    1.7680    7.7610 hc        1 49Q      0.095500
     32 H15         3.8870    3.3400    7.0530 hc        1 49Q      0.095500
     33 H16         2.3500    1.7390    9.2340 h1        1 49Q      0.066500
     34 H17         1.8060    3.3010    8.4590 h1        1 49Q      0.066500
     35 H18         0.9630    1.4680    7.3790 ho        1 49Q      0.222000
     36 C10         4.4940    3.4500    9.1370 c3        1 49Q     -0.118000
@<TRIPOS>BOND
     1    1    3 1   
     2    1   20 1   
     3    2    4 1   
     4    2   19 1   
     5    2   21 1   
     6    3    5 1   
     7    3   18 1   
     8    4   11 1   
     9    6    8 1   
    10    6   10 1   
    11    7    9 1   
    12    8   23 1   
    13    8   25 1   
    14    9   12 1   
    15   10   24 1   
    16   10   36 1   
    17   11   13 1   
    18   11   22 1   
    19   12   17 1   
    20   12   26 1   
    21   13   17 1   
    22   13   29 1   
    23   13   30 1   
    24   14   15 1   
    25   14   31 1   
    26   14   32 1   
    27   14   36 1   
    28   15   16 1   
    29   15   33 1   
    30   15   34 1   
    31   16   35 1   
    32   27   36 1   
    33   28   36 1   
@<TRIPOS>SUBSTRUCTURE
     1 49Q         1 TEMP              0 ****  ****    0 ROOT
