@<TRIPOS>MOLECULE
molecule
   36    37     1     0     0
SMALL
bcc


@<TRIPOS>ATOM
      1 C17          0.0000     0.0000     0.0000 ca         1 49Q      -0.115000
      2 C14          1.3820     0.0000     0.0000 ca         1 49Q      -0.133500
      3 C15         -0.6910    -0.0000     1.1970 ca         1 49Q      -0.133500
      4 C11          2.0730     0.0000     1.1970 ca         1 49Q      -0.099500
      5 C12          0.0000    -0.0010     2.3940 ca         1 49Q      -0.099500
      6 C5           3.9210     3.3800     6.7880 ca         1 49Q      -0.082000
      7 C6           4.1300     1.0230     7.1640 ca         1 49Q      -0.082000
      8 C2           3.2410     3.1340     5.6110 ca         1 49Q      -0.203500
      9 C3           3.4560     0.7720     5.9850 ca         1 49Q      -0.203500
     10 C8           4.3670     2.3260     7.5620 ca         1 49Q      -0.130300
     11 C9           1.3820    -0.0000     2.3940 ca         1 49Q      -0.096300
     12 C1           3.0070     1.8270     5.2060 ca         1 49Q       0.196100
     13 C7           2.1360    -0.0020     3.6990 c3         1 49Q       0.239700
     14 C13          4.1200     2.6940    10.0030 c3         1 49Q      -0.077400
     15 C16          4.8770     2.9700    11.3020 c3         1 49Q       0.139400
     16 O18          3.9490     3.0600    12.3850 oh         1 49Q      -0.610800
     17 O4           2.3750     1.3450     4.1120 os         1 49Q      -0.395900
     18 H1          -0.5420     0.0000    -0.9380 ha         1 49Q       0.131000
     19 H2           1.9230     0.0000    -0.9380 ha         1 49Q       0.132000
     20 H3          -1.7740    -0.0010     1.1970 ha         1 49Q       0.132000
     21 H4           3.1570     0.0000     1.1960 ha         1 49Q       0.134500
     22 H5          -0.5410    -0.0020     3.3330 ha         1 49Q       0.134500
     23 H6           4.1060     4.4000     7.1030 ha         1 49Q       0.132000
     24 H7           4.4810     0.1990     7.7740 ha         1 49Q       0.132000
     25 H8           2.8910     3.9600     5.0040 ha         1 49Q       0.138000
     26 H9           3.2730    -0.2490     5.6720 ha         1 49Q       0.138000
     27 H10          5.8110     1.7900     9.0330 hc         1 49Q       0.045700
     28 H11          5.6570     3.5300     8.7550 hc         1 49Q       0.045700
     29 H12          1.5510    -0.5130     4.4540 h1         1 49Q       0.035700
     30 H13          3.0830    -0.5130     3.5690 h1         1 49Q       0.035700
     31 H14          3.4220     3.5010     9.8140 hc         1 49Q       0.057700
     32 H15          3.5770     1.7600    10.0920 hc         1 49Q       0.057700
     33 H16          5.4200     3.9030    11.2130 h1         1 49Q       0.017700
     34 H17          5.5750     2.1630    11.4910 h1         1 49Q       0.017700
     35 H18          4.4160     3.2300    13.1860 ho         1 49Q       0.401000
     36 C10          5.1140     2.5970     8.8440 c3         1 49Q      -0.029100
@<TRIPOS>BOND
     1     1     2 ar
     2     1     3 ar
     3     2     4 ar
     4     3     5 ar
     5     4    11 ar
     6     5    11 ar
     7    11    13 1
     8    17    13 1
     9    17    12 1
    10     8    12 ar
    11     8     6 ar
    12    12     9 ar
    13     6    10 ar
    14     9     7 ar
    15    10     7 ar
    16    10    36 1
    17    36    14 1
    18    15    14 1
    19    15    16 1
    20     1    18 1
    21     2    19 1
    22     3    20 1
    23     4    21 1
    24     5    22 1
    25     6    23 1
    26     7    24 1
    27     8    25 1
    28     9    26 1
    29    36    27 1
    30    36    28 1
    31    13    29 1
    32    13    30 1
    33    14    31 1
    34    14    32 1
    35    15    33 1
    36    15    34 1
    37    16    35 1
@<TRIPOS>SUBSTRUCTURE
     1 49Q         1 TEMP              0 ****  ****    0 ROOT
