@<TRIPOS>MOLECULE
molecule
   38    39     1     0     0
SMALL
bcc


@<TRIPOS>ATOM
      1 C17          0.0000     0.0000     0.0000 ca         1 49R      -0.163000
      2 C18          1.3830     0.0000     0.0000 ca         1 49R      -0.097000
      3 C12         -0.6940     0.0060     1.1950 ca         1 49R      -0.094000
      4 C13          2.0710     0.0000     1.1960 ca         1 49R      -0.170000
      5 C5          -0.0120     0.0110     2.3990 ca         1 49R      -0.137300
      6 C4           1.3750     0.0010     2.4000 ca         1 49R       0.135600
      7 C1          -0.3470     1.0890     7.1720 c          1 49R       0.752100
      8 C8          -0.7990     0.0070     3.6830 c3         1 49R      -0.040100
      9 C11          1.3820    -0.2650     4.8550 c3         1 49R       0.164800
     10 C9           0.0610     0.5150     4.8400 c3         1 49R       0.129700
     11 C14         -0.8870     3.2310     9.0510 c3         1 49R      -0.105767
     12 C15          0.8610     1.5940     9.7600 c3         1 49R      -0.105767
     13 C16         -1.4580     1.4190    10.6730 c3         1 49R      -0.105767
     14 C10         -0.6250     1.7760     9.4410 c3         1 49R       0.178800
     15 N2           2.0920     0.0150     3.6010 nu         1 49R      -0.707600
     16 N3          -0.6410     0.3140     6.1100 ns         1 49R      -0.573900
     17 O7           0.5010     1.9540     7.0770 o          1 49R      -0.612000
     18 O6          -0.9930     0.9040     8.3390 os         1 49R      -0.439900
     19 H1          -0.5400    -0.0000    -0.9390 ha         1 49R       0.130000
     20 H2           1.9250    -0.0050    -0.9380 ha         1 49R       0.131000
     21 H3          -1.7770     0.0060     1.1890 ha         1 49R       0.129000
     22 H4           3.1550     0.0000     1.1970 ha         1 49R       0.135000
     23 H5          -1.6630     0.6510     3.5720 hc         1 49R       0.054700
     24 H6          -1.1250    -1.0030     3.8970 hc         1 49R       0.054700
     25 H7           1.1780    -1.3260     4.9290 h1         1 49R       0.051200
     26 H8           1.9860     0.0570     5.6950 h1         1 49R       0.051200
     27 H9           0.2680     1.5690     4.6980 h1         1 49R       0.101700
     28 H10         -1.8080     3.2920     8.4840 hc         1 49R       0.049811
     29 H11         -0.9740     3.8350     9.9470 hc         1 49R       0.049811
     30 H12         -0.0660     3.5970     8.4470 hc         1 49R       0.049811
     31 H13          1.1400     0.5590     9.6040 hc         1 49R       0.049811
     32 H14          1.4510     2.2300     9.1100 hc         1 49R       0.049811
     33 H15          1.0450     1.8650    10.7930 hc         1 49R       0.049811
     34 H16         -2.5100     1.5430    10.4460 hc         1 49R       0.049811
     35 H17         -1.2680     0.3890    10.9520 hc         1 49R       0.049811
     36 H18         -1.1870     2.0710    11.4940 hc         1 49R       0.049811
     37 H19          2.8840    -0.5910     3.5240 hn         1 49R       0.382800
     38 H20         -1.3600    -0.3790     6.1800 hn         1 49R       0.322500
@<TRIPOS>BOND
     1    13    14 1
     2    12    14 1
     3    11    14 1
     4    14    18 1
     5    18     7 1
     6    17     7 2
     7     7    16 1
     8    16    10 1
     9    10     9 1
    10    10     8 1
    11     9    15 1
    12     8     5 1
    13     5     3 ar
    14     5     6 ar
    15     3     1 ar
    16    15     6 1
    17     6     4 ar
    18     1     2 ar
    19     4     2 ar
    20     1    19 1
    21     2    20 1
    22     3    21 1
    23     4    22 1
    24     8    23 1
    25     8    24 1
    26     9    25 1
    27     9    26 1
    28    10    27 1
    29    11    28 1
    30    11    29 1
    31    11    30 1
    32    12    31 1
    33    12    32 1
    34    12    33 1
    35    13    34 1
    36    13    35 1
    37    13    36 1
    38    15    37 1
    39    16    38 1
@<TRIPOS>SUBSTRUCTURE
     1 49R         1 TEMP              0 ****  ****    0 ROOT
