@<TRIPOS>MOLECULE
49S
   28    28     1     0     0
SMALL
bcc


@<TRIPOS>ATOM
      1 C8           0.0000     0.0000     0.0000 c3         1 49S      -0.069100
      2 C7           1.5070     0.0000     0.0000 c          1 49S       0.573100
      3 O7           2.1130     0.0000     1.0500 o          1 49S      -0.668100
      4 N2           2.1810    -0.0030    -1.1670 ns         1 49S      -0.146900
      5 C2           3.6460    -0.0030    -1.1670 c3         1 49S      -0.034300
      6 C3           4.1570    -0.6160    -2.4750 c3         1 49S       0.143100
      7 O3           3.6240    -1.9330    -2.6270 oh         1 49S      -0.592800
      8 C1           4.1580     1.4340    -1.0510 c3         1 49S       0.375900
      9 O1           3.6390     2.0310     0.1390 oh         1 49S      -0.554800
     10 O5           3.7270     2.1860    -2.1880 os         1 49S      -0.382600
     11 C5           4.2140     1.6880    -3.4350 c3         1 49S       0.066100
     12 C6           3.7230     2.5680    -4.5550 c          1 49S       0.977600
     13 OAK          2.9540     3.4700    -4.3200 o          1 49S      -0.874800
     14 O6           4.1390     2.3500    -5.8130 o          1 49S      -0.874800
     15 C4           3.7040     0.2590    -3.6470 c3         1 49S       0.160100
     16 O4           4.2370    -0.2620    -4.8660 oh         1 49S      -0.546800
     17 H1          -0.3610     0.8640    -0.5440 hc         1 49S       0.016367
     18 H2          -0.3610     0.0400     1.0210 hc         1 49S       0.016367
     19 H3          -0.3610    -0.9040    -0.4760 hc         1 49S       0.016367
     20 H4           1.6810    -0.0430    -2.0340 hn         1 49S       0.185500
     21 H5           4.0120    -0.5850    -0.3290 h1         1 49S       0.050700
     22 H6           5.2390    -0.6580    -2.4540 h1         1 49S       0.014700
     23 H7           4.3230    -2.5630    -2.5700 ho         1 49S       0.385000
     24 H8           5.2410     1.4270    -1.0140 h2         1 49S      -0.025300
     25 H9           4.2500     2.6740     0.4590 ho         1 49S       0.382000
     26 H10          5.2970     1.6840    -3.4220 h1         1 49S       0.010700
     27 H12          2.6220     0.2660    -3.6940 h1         1 49S       0.015700
     28 H13          3.5530    -0.6970    -5.3480 ho         1 49S       0.382000
@<TRIPOS>BOND
     1     1     2 1   
     2     1    17 1   
     3     1    18 1   
     4     1    19 1   
     5     2     3 2   
     6     2     4 1   
     7     4     5 1   
     8     4    20 1   
     9     5     6 1   
    10     5     8 1   
    11     5    21 1   
    12     6     7 1   
    13     6    15 1   
    14     6    22 1   
    15     7    23 1   
    16     8     9 1   
    17     8    10 1   
    18     8    24 1   
    19     9    25 1   
    20    10    11 1   
    21    11    12 1   
    22    11    15 1   
    23    11    26 1   
    24    12    13 1   
    25    12    14 1   
    26    15    16 1   
    27    15    27 1   
    28    16    28 1   
@<TRIPOS>SUBSTRUCTURE
     1 49S         1 TEMP              0 ****  ****    0 ROOT
