@<TRIPOS>MOLECULE
molecule
   29    29     1     0     0
SMALL
bcc


@<TRIPOS>ATOM
      1 C1           0.0000     0.0000     0.0000 c3         1 49T       0.321900
      2 C2           1.5310     0.0000     0.0000 c3         1 49T       0.105700
      3 N2           2.0200    -1.1970    -0.6900 ns         1 49T      -0.573900
      4 C7           2.1500    -1.1970    -2.0300 c          1 49T       0.656100
      5 O7           1.8600    -0.2060    -2.6680 o          1 49T      -0.611100
      6 C8           2.6520    -2.4290    -2.7390 c3         1 49T      -0.171100
      7 O5          -0.4750     1.1390     0.7220 os         1 49T      -0.413600
      8 C5          -0.0750     1.1670     2.0940 c3         1 49T       0.142100
      9 C6          -0.6610     2.4080     2.7700 c3         1 49T      -0.085100
     10 C4           1.4520     1.2140     2.1780 c3         1 49T       0.103100
     11 O4           1.9280     2.4140     1.5640 oh         1 49T      -0.577800
     12 C3           2.0340     0.0000     1.4460 c3         1 49T       0.118100
     13 O3           3.4600     0.0740     1.4570 oh         1 49T      -0.592800
     14 O1          -0.4770    -1.1930     0.6240 oh         1 49T      -0.638800
     15 H1          -0.3590     0.0470    -1.0210 h2         1 49T       0.092700
     16 H2           1.8910     0.8870    -0.5060 h1         1 49T       0.126700
     17 H3           2.2730    -2.0100    -0.1630 hn         1 49T       0.315500
     18 H4           1.9980    -3.2640    -2.5190 hc         1 49T       0.060700
     19 H5           3.6550    -2.6570    -2.3990 hc         1 49T       0.060700
     20 H6           2.6640    -2.2510    -3.8070 hc         1 49T       0.060700
     21 H7          -0.4350     0.2750     2.5910 h1         1 49T       0.052700
     22 H8          -0.2280     2.5210     3.7570 hc         1 49T       0.048033
     23 H9          -1.7350     2.2990     2.8580 hc         1 49T       0.048033
     24 H10         -0.4360     3.2850     2.1750 hc         1 49T       0.048033
     25 H11          1.7570     1.1880     3.2170 h1         1 49T       0.037700
     26 H12          2.5420     2.8390     2.1390 ho         1 49T       0.404000
     27 H13          1.7100    -0.9080     1.9400 h1         1 49T       0.048700
     28 H14          3.8000    -0.5020     2.1210 ho         1 49T       0.398000
     29 H15         -1.2930    -1.4500     0.2290 ho         1 49T       0.414000
@<TRIPOS>BOND
     1     9     8 1
     2     8     7 1
     3     8    10 1
     4     7     1 1
     5     1     2 1
     6    10    12 1
     7    10    11 1
     8    12     2 1
     9    12    13 1
    10     2     3 1
    11     3     4 1
    12     4     6 1
    13     4     5 2
    14     1    14 1
    15     1    15 1
    16     2    16 1
    17     3    17 1
    18     6    18 1
    19     6    19 1
    20     6    20 1
    21     8    21 1
    22     9    22 1
    23     9    23 1
    24     9    24 1
    25    10    25 1
    26    11    26 1
    27    12    27 1
    28    13    28 1
    29    14    29 1
@<TRIPOS>SUBSTRUCTURE
     1 49T         1 TEMP              0 ****  ****    0 ROOT
