@<TRIPOS>MOLECULE
49U
   58    60     1     0     0
SMALL
bcc


@<TRIPOS>ATOM
      1 C47          0.0000     0.0000     0.0000 c3         1 49U      -0.023900
      2 C45          1.5490     0.0000     0.0000 c3         1 49U      -0.026900
      3 C44          1.9270     0.0000     1.4950 c3         1 49U      -0.054700
      4 C49          0.7260     0.5910     2.2530 c3         1 49U      -0.026900
      5 C48         -0.3410     0.9290     1.1910 c3         1 49U      -0.023900
      6 C21          3.1670     0.8680     1.7210 c3         1 49U      -0.011400
      7 C5           4.3810     0.2040     1.0680 c3         1 49U      -0.100400
      8 C14          5.6010     1.0590     1.2910 c          1 49U       0.618100
      9 O32          5.5110     2.0970     1.9120 o          1 49U      -0.636100
     10 N1           6.7950     0.6700     0.8000 n          1 49U      -0.151800
     11 C1           8.0610     1.4040     0.9440 c3         1 49U      -0.028300
     12 C7           7.9480     2.7530     0.2830 c          1 49U       0.568100
     13 O22          6.9140     3.0790    -0.2590 o          1 49U      -0.598100
     14 C2           9.1560     0.5690     0.2490 c3         1 49U      -0.032400
     15 C3           8.5530    -0.8600     0.2440 c3         1 49U      -0.028400
     16 C4           7.0480    -0.5620     0.0310 c3         1 49U       0.047000
     17 N23          8.9970     3.6010     0.2980 ns         1 49U      -0.221900
     18 C24          8.8860     4.9160    -0.3390 c3         1 49U       0.102300
     19 C25         10.1850     5.6620    -0.1820 ca         1 49U      -0.053300
     20 C30         11.1730     5.5350    -1.1410 ca         1 49U      -0.055000
     21 C29         12.3630     6.2200    -1.0060 ca         1 49U      -0.073500
     22 C28         12.5730     7.0320     0.1090 ca         1 49U      -0.229900
     23 C9          13.8520     7.7640     0.2640 ce         1 49U       0.210800
     24 N46         14.0460     8.5220     1.3060 n2         1 49U      -0.486100
     25 N47         14.8350     7.6440    -0.6940 nz         1 49U       0.190400
     26 C27         11.5760     7.1510     1.0750 ca         1 49U      -0.073500
     27 C26         10.3890     6.4660     0.9260 ca         1 49U      -0.055000
     28 H47         -0.3820     0.4110    -0.9270 hc         1 49U       0.015200
     29 H47A        -0.3820    -0.9990     0.1720 hc         1 49U       0.015200
     30 H45          1.9260     0.8920    -0.4850 hc         1 49U       0.016450
     31 H45A         1.9260    -0.8920    -0.4850 hc         1 49U       0.016450
     32 H44          2.1120    -1.0140     1.8290 hc         1 49U       0.024700
     33 H49          0.3340    -0.1390     2.9520 hc         1 49U       0.016450
     34 H49A         1.0250     1.4910     2.7770 hc         1 49U       0.016450
     35 H48         -0.2630     1.9670     0.8950 hc         1 49U       0.015200
     36 H48A        -1.3330     0.7090     1.5690 hc         1 49U       0.015200
     37 H21          3.3440     0.9750     2.7850 hc         1 49U       0.032200
     38 H21A         3.0100     1.8450     1.2810 hc         1 49U       0.032200
     39 H5           4.2050     0.0970     0.0040 hc         1 49U       0.032200
     40 H5A          4.5390    -0.7730     1.5080 hc         1 49U       0.032200
     41 H1           8.3000     1.5210     1.9940 h1         1 49U       0.046700
     42 H2           9.3180     0.9190    -0.7630 hc         1 49U       0.021700
     43 H2A         10.0750     0.5930     0.8230 hc         1 49U       0.021700
     44 H3           8.9510    -1.4440    -0.5780 hc         1 49U       0.030200
     45 H3A          8.7180    -1.3520     1.1950 hc         1 49U       0.030200
     46 H4           6.4450    -1.3750     0.4160 h1         1 49U       0.025700
     47 H4A          6.8430    -0.3970    -1.0200 h1         1 49U       0.025700
     48 HN23         9.8410     3.3430     0.7710 hn         1 49U       0.172500
     49 H24          8.6670     4.7890    -1.3920 h1         1 49U       0.042700
     50 H24A         8.0870     5.4780     0.1300 h1         1 49U       0.042700
     51 H30         11.0090     4.9040    -2.0060 ha         1 49U       0.134000
     52 H29         13.1360     6.1200    -1.7580 ha         1 49U       0.099500
     53 HN46        13.3320     8.6100     2.0020 hn         1 49U       0.382400
     54 HN47        15.1140     6.6860    -0.7680 hn         1 49U       0.221800
     55 HN4A        15.6240     8.2020    -0.4340 hn         1 49U       0.221800
     56 H27         11.7340     7.7800     1.9430 ha         1 49U       0.099500
     57 H26          9.6130     6.5580     1.6770 ha         1 49U       0.134000
     58 H473        14.4810     7.9580    -1.5760 hn         1 49U       0.221800
@<TRIPOS>BOND
     1     1     2 1   
     2     1     5 1   
     3     1    28 1   
     4     1    29 1   
     5     2     3 1   
     6     2    30 1   
     7     2    31 1   
     8     3     4 1   
     9     3     6 1   
    10     3    32 1   
    11     4     5 1   
    12     4    33 1   
    13     4    34 1   
    14     5    35 1   
    15     5    36 1   
    16     6     7 1   
    17     6    37 1   
    18     6    38 1   
    19     7     8 1   
    20     7    39 1   
    21     7    40 1   
    22     8     9 2   
    23     8    10 1   
    24    10    11 1   
    25    10    16 1   
    26    11    12 1   
    27    11    14 1   
    28    11    41 1   
    29    12    13 2   
    30    12    17 1   
    31    14    15 1   
    32    14    42 1   
    33    14    43 1   
    34    15    16 1   
    35    15    44 1   
    36    15    45 1   
    37    16    46 1   
    38    16    47 1   
    39    17    18 1   
    40    17    48 1   
    41    18    19 1   
    42    18    49 1   
    43    18    50 1   
    44    19    20 ar  
    45    19    27 ar  
    46    20    21 ar  
    47    20    51 1   
    48    21    22 ar  
    49    21    52 1   
    50    22    23 1   
    51    22    26 ar  
    52    23    24 2   
    53    23    25 1   
    54    24    53 1   
    55    25    54 1   
    56    25    55 1   
    57    25    58 1   
    58    26    27 ar  
    59    26    56 1   
    60    27    57 1   
@<TRIPOS>SUBSTRUCTURE
     1 49U         1 TEMP              0 ****  ****    0 ROOT
