@<TRIPOS>MOLECULE
molecule
   25    25     1     0     0
SMALL
bcc


@<TRIPOS>ATOM
      1 C1           0.0000     0.0000     0.0000 c3         1 49V       0.326900
      2 O5           1.4310     0.0000     0.0000 os         1 49V      -0.318900
      3 C5           2.0580     0.0000     1.2010 ce         1 49V       0.099900
      4 C6           3.4830     0.3710     1.2500 c          1 49V       0.887800
      5 O6           4.0720     0.3800     2.3130 o          1 49V      -0.813300
      6 O9           4.1330     0.7000     0.1160 o          1 49V      -0.813300
      7 C4           1.4480    -0.3180     2.3340 c2         1 49V      -0.375200
      8 C3          -0.0060    -0.7010     2.3840 c3         1 49V       0.187300
      9 O3          -0.1750    -1.8160     3.2610 oh         1 49V      -0.602800
     10 C2          -0.4820    -1.0790     0.9780 c3         1 49V       0.092700
     11 N2           0.0800    -2.3780     0.5980 ns         1 49V      -0.545900
     12 C7          -0.5350    -3.1330    -0.3330 c          1 49V       0.663100
     13 O7          -1.5550    -2.7380    -0.8560 o          1 49V      -0.626100
     14 C8           0.0440    -4.4690    -0.7240 c3         1 49V      -0.170100
     15 H1          -0.3630     0.9690     0.3210 h2         1 49V       0.023700
     16 H4           2.0160    -0.3000     3.2560 ha         1 49V       0.167000
     17 H5          -0.5860     0.1390     2.7460 h1         1 49V       0.024700
     18 H6          -0.5680    -1.5260     4.0660 ho         1 49V       0.391000
     19 H7          -1.5650    -1.1260     0.9610 h1         1 49V       0.072700
     20 H8           0.9070    -2.7160     1.0490 hn         1 49V       0.334500
     21 H9           1.0440    -4.3280    -1.1150 hc         1 49V       0.053367
     22 H10         -0.5800    -4.9250    -1.4830 hc         1 49V       0.053367
     23 H11          0.0840    -5.1130     0.1460 hc         1 49V       0.053367
     24 O1          -0.4820    -0.2890    -1.3140 oh         1 49V      -0.564800
     25 H2          -0.4980     0.5030    -1.8240 ho         1 49V       0.399000
@<TRIPOS>BOND
     1     5     4 1
     2     4     6 1
     3     4     3 1
     4     2     3 1
     5     2     1 1
     6     3     7 2
     7     1    10 1
     8     7     8 1
     9    10     8 1
    10    10    11 1
    11     8     9 1
    12    11    12 1
    13    13    12 2
    14    12    14 1
    15     1    15 1
    16     7    16 1
    17     8    17 1
    18     9    18 1
    19    10    19 1
    20    11    20 1
    21    14    21 1
    22    14    22 1
    23    14    23 1
    24     1    24 1
    25    24    25 1
@<TRIPOS>SUBSTRUCTURE
     1 49V         1 TEMP              0 ****  ****    0 ROOT
