@<TRIPOS>MOLECULE
49W
   92    95     1     0     0
SMALL
bcc


@<TRIPOS>ATOM
      1 O3           0.0000     0.0000     0.0000 o          1 49W      -0.646100
      2 C15          1.2150     0.0000     0.0000 c          1 49W       0.593700
      3 C25          1.9550     0.0000     1.2800 ca         1 49W      -0.147600
      4 C24          3.3450    -0.1040     1.2830 ca         1 49W      -0.044000
      5 C26          1.2630     0.1100     2.4870 ca         1 49W      -0.035000
      6 C27          1.9560     0.1090     3.6890 ca         1 49W       0.009600
      7 N2           1.2600     0.2190     4.8950 nh         1 49W      -0.231800
      8 C30          0.4230     1.2990     5.1330 c2         1 49W      -0.026000
      9 C31         -0.6610     1.1150     5.9070 ce         1 49W      -0.202000
     10 C32         -0.9270    -0.2140     6.4700 ce         1 49W      -0.067000
     11 C29          0.0360    -1.1350     6.4890 c2         1 49W      -0.204200
     12 C47          1.3960    -0.8090     5.9350 c3         1 49W       0.232000
     13 C22          3.3390    -0.0010     3.6950 ca         1 49W      -0.128000
     14 C23          4.0380    -0.1040     2.4910 ca         1 49W      -0.139600
     15 C28          5.5120    -0.2160     2.4980 c          1 49W       0.609700
     16 N3           6.2460     0.6010     3.2790 n          1 49W      -0.144800
     17 C33          5.5810     1.5010     4.2260 c3         1 49W       0.029500
     18 C34          5.5930     0.8720     5.6210 c3         1 49W      -0.055900
     19 C35          4.7680     1.7370     6.5760 c3         1 49W       0.007400
     20 C36          7.7070     0.5900     3.1820 c3         1 49W       0.029500
     21 C37          8.1580     1.6090     2.1340 c3         1 49W      -0.055900
     22 C38          9.6840     1.5970     2.0330 c3         1 49W       0.007400
     23 O6           6.0630    -1.0450     1.8000 o          1 49W      -0.640100
     24 N1           1.8890    -0.0050    -1.1680 ns         1 49W      -0.185900
     25 C11          1.1610     0.1110    -2.4340 c3         1 49W       0.002700
     26 C14          1.1030     1.5800    -2.8570 c3         1 49W       0.014900
     27 C19          0.2880     2.3590    -1.8570 ca         1 49W      -0.083300
     28 C20          0.9060     2.9380    -0.7640 ca         1 49W      -0.093500
     29 C21          0.1590     3.6520     0.1540 ca         1 49W      -0.094000
     30 C16         -1.2060     3.7880    -0.0210 ca         1 49W      -0.100000
     31 C17         -1.8230     3.2090    -1.1140 ca         1 49W      -0.094000
     32 C18         -1.0760     2.4990    -2.0350 ca         1 49W      -0.093500
     33 C10          1.8810    -0.7020    -3.5120 c3         1 49W       0.180100
     34 O2           3.1940    -0.1740    -3.7090 oh         1 49W      -0.579800
     35 C9           1.9810    -2.1630    -3.0680 c3         1 49W       0.093800
     36 N4           2.6710    -2.9440    -4.1030 n7         1 49W      -0.553200
     37 C7           2.7850    -4.3550    -3.7100 c3         1 49W       0.058900
     38 C12          3.5780    -4.4580    -2.4050 c3         1 49W      -0.022100
     39 C13          1.3880    -4.9410    -3.5050 c3         1 49W      -0.022100
     40 C3           3.4980    -5.1220    -4.7940 ca         1 49W       0.381600
     41 N5           3.9080    -4.4900    -5.8770 nb         1 49W      -0.558000
     42 C1           4.5360    -5.1210    -6.8500 ca         1 49W       0.401200
     43 C6           4.7870    -6.4780    -6.7680 ca         1 49W      -0.225300
     44 C5           4.3710    -7.1750    -5.6440 ca         1 49W      -0.067000
     45 C4           3.7190    -6.4770    -4.6380 ca         1 49W      -0.215300
     46 H1           3.8850    -0.1850     0.3470 ha         1 49W       0.122000
     47 H2           0.1820     0.1920     2.4850 ha         1 49W       0.141000
     48 H3           0.7490     2.3020     4.8870 h4         1 49W       0.118000
     49 H4          -1.4060     1.8980     5.9910 ha         1 49W       0.116000
     50 H5          -1.9070    -0.4470     6.8700 ha         1 49W       0.102000
     51 H6          -0.1430    -2.0970     6.9550 ha         1 49W       0.110000
     52 H7           1.8330    -1.7020     5.5050 h1         1 49W       0.014200
     53 H8           2.0290    -0.4360     6.7310 h1         1 49W       0.014200
     54 H9           3.8780    -0.0010     4.6350 ha         1 49W       0.145000
     55 H10          6.1050     2.4480     4.2520 h1         1 49W       0.037950
     56 H11          4.5570     1.6620     3.9110 h1         1 49W       0.037950
     57 H12          6.6130     0.8110     5.9800 hc         1 49W       0.022450
     58 H13          5.1660    -0.1220     5.5730 hc         1 49W       0.022450
     59 H14          5.4190     2.4380     7.0830 hc         1 49W       0.004033
     60 H15          4.0190     2.2820     6.0140 hc         1 49W       0.004033
     61 H16          4.2810     1.1030     7.3070 hc         1 49W       0.004033
     62 H17          8.0430    -0.3990     2.8920 h1         1 49W       0.037950
     63 H18          8.1350     0.8480     4.1430 h1         1 49W       0.037950
     64 H19          7.7300     1.3510     1.1720 hc         1 49W       0.022450
     65 H20          7.8230     2.5980     2.4240 hc         1 49W       0.022450
     66 H21         10.1100     1.9140     2.9770 hc         1 49W       0.004033
     67 H22         10.0230     0.5940     1.8020 hc         1 49W       0.004033
     68 H23          9.9990     2.2740     1.2490 hc         1 49W       0.004033
     69 H24          2.8840    -0.1100    -1.1710 hn         1 49W       0.197500
     70 H25          0.1540    -0.2690    -2.3080 h1         1 49W       0.069700
     71 H26          0.6420     1.6550    -3.8350 hc         1 49W       0.026700
     72 H27          2.1070     1.9840    -2.8990 hc         1 49W       0.026700
     73 H28          1.9750     2.8320    -0.6270 ha         1 49W       0.101500
     74 H29          0.6430     4.1060     1.0110 ha         1 49W       0.098500
     75 H30         -1.7920     4.3460     0.6990 ha         1 49W       0.099000
     76 H31         -2.8920     3.3170    -1.2530 ha         1 49W       0.098500
     77 H32         -1.5600     2.0460    -2.8920 ha         1 49W       0.101500
     78 H33          1.3250    -0.6440    -4.4400 h1         1 49W       0.006700
     79 H34          3.3240     0.0100    -4.6250 ho         1 49W       0.399000
     80 H35          0.9850    -2.5630    -2.9170 h1         1 49W       0.026700
     81 H36          2.5370    -2.2210    -2.1400 h1         1 49W       0.026700
     82 H37          2.1660    -2.8770    -4.9640 hn         1 49W       0.261800
     83 H39          2.9410    -4.1880    -1.5720 hc         1 49W       0.015867
     84 H40          4.4260    -3.7850    -2.4430 hc         1 49W       0.015867
     85 H41          3.9300    -5.4750    -2.2760 hc         1 49W       0.015867
     86 H42          1.4530    -6.0210    -3.4560 hc         1 49W       0.015867
     87 H43          0.7500    -4.6540    -4.3320 hc         1 49W       0.015867
     88 H44          0.9700    -4.5620    -2.5790 hc         1 49W       0.015867
     89 H45          4.8580    -4.5690    -7.7250 h4         1 49W      -0.020900
     90 H46          5.3010    -6.9910    -7.5720 ha         1 49W       0.112000
     91 H47          4.5550    -8.2380    -5.5510 ha         1 49W       0.108000
     92 H48          3.3800    -6.9890    -3.7460 ha         1 49W       0.121000
@<TRIPOS>BOND
     1     1     2 2   
     2     2     3 1   
     3     2    24 1   
     4     3     4 ar  
     5     3     5 ar  
     6     4    14 ar  
     7     4    46 1   
     8     5     6 ar  
     9     5    47 1   
    10     6     7 1   
    11     6    13 ar  
    12     7     8 1   
    13     7    12 1   
    14     8     9 2   
    15     8    48 1   
    16     9    10 1   
    17     9    49 1   
    18    10    11 2   
    19    10    50 1   
    20    11    12 1   
    21    11    51 1   
    22    12    52 1   
    23    12    53 1   
    24    13    14 ar  
    25    13    54 1   
    26    14    15 1   
    27    15    16 1   
    28    15    23 2   
    29    16    17 1   
    30    16    20 1   
    31    17    18 1   
    32    17    55 1   
    33    17    56 1   
    34    18    19 1   
    35    18    57 1   
    36    18    58 1   
    37    19    59 1   
    38    19    60 1   
    39    19    61 1   
    40    20    21 1   
    41    20    62 1   
    42    20    63 1   
    43    21    22 1   
    44    21    64 1   
    45    21    65 1   
    46    22    66 1   
    47    22    67 1   
    48    22    68 1   
    49    24    25 1   
    50    24    69 1   
    51    25    26 1   
    52    25    33 1   
    53    25    70 1   
    54    26    27 1   
    55    26    71 1   
    56    26    72 1   
    57    27    28 ar  
    58    27    32 ar  
    59    28    29 ar  
    60    28    73 1   
    61    29    30 ar  
    62    29    74 1   
    63    30    31 ar  
    64    30    75 1   
    65    31    32 ar  
    66    31    76 1   
    67    32    77 1   
    68    33    34 1   
    69    33    35 1   
    70    33    78 1   
    71    34    79 1   
    72    35    36 1   
    73    35    80 1   
    74    35    81 1   
    75    36    37 1   
    76    36    82 1   
    77    37    38 1   
    78    37    39 1   
    79    37    40 1   
    80    38    83 1   
    81    38    84 1   
    82    38    85 1   
    83    39    86 1   
    84    39    87 1   
    85    39    88 1   
    86    40    41 ar  
    87    40    45 ar  
    88    41    42 ar  
    89    42    43 ar  
    90    42    89 1   
    91    43    44 ar  
    92    43    90 1   
    93    44    45 ar  
    94    44    91 1   
    95    45    92 1   
@<TRIPOS>SUBSTRUCTURE
     1 49W         1 TEMP              0 ****  ****    0 ROOT
