@<TRIPOS>MOLECULE
molecule
   92    95     1     0     0
SMALL
bcc


@<TRIPOS>ATOM
      1 O3           0.0000     0.0000     0.0000 o          1 49W      -0.603100
      2 C15          1.2150     0.0000     0.0000 c          1 49W       0.672700
      3 C25          1.9550     0.0000     1.2800 ca         1 49W      -0.140600
      4 C24          3.3450    -0.1040     1.2830 ca         1 49W      -0.073000
      5 C26          1.2630     0.1100     2.4870 ca         1 49W      -0.070000
      6 C27          1.9560     0.1090     3.6890 ca         1 49W       0.141600
      7 N2           1.2600     0.2190     4.8950 nh         1 49W      -0.616800
      8 C30          0.4230     1.2990     5.1330 c2         1 49W       0.090000
      9 C31         -0.6610     1.1150     5.9070 ce         1 49W      -0.230000
     10 C32         -0.9270    -0.2140     6.4700 ce         1 49W      -0.097000
     11 C29          0.0360    -1.1350     6.4890 c2         1 49W      -0.220200
     12 C47          1.3960    -0.8090     5.9350 c3         1 49W       0.287000
     13 C22          3.3390    -0.0010     3.6950 ca         1 49W      -0.130000
     14 C23          4.0380    -0.1040     2.4910 ca         1 49W      -0.137600
     15 C28          5.5120    -0.2160     2.4980 c          1 49W       0.675700
     16 N3           6.2460     0.6010     3.2790 n          1 49W      -0.486800
     17 C33          5.5810     1.5010     4.2260 c3         1 49W       0.098500
     18 C34          5.5930     0.8720     5.6210 c3         1 49W      -0.109400
     19 C35          4.7680     1.7370     6.5760 c3         1 49W      -0.093100
     20 C36          7.7070     0.5900     3.1820 c3         1 49W       0.098500
     21 C37          8.1580     1.6090     2.1340 c3         1 49W      -0.109400
     22 C38          9.6840     1.5970     2.0330 c3         1 49W      -0.093100
     23 O6           6.0630    -1.0450     1.8000 o          1 49W      -0.600100
     24 N1           1.8890    -0.0050    -1.1680 ns         1 49W      -0.573900
     25 C11          1.1610     0.1110    -2.4340 c3         1 49W       0.113700
     26 C14          1.1030     1.5800    -2.8570 c3         1 49W      -0.050100
     27 C19          0.2880     2.3590    -1.8570 ca         1 49W      -0.074300
     28 C20          0.9060     2.9380    -0.7640 ca         1 49W      -0.118500
     29 C21          0.1590     3.6520     0.1540 ca         1 49W      -0.122500
     30 C16         -1.2060     3.7880    -0.0210 ca         1 49W      -0.127000
     31 C17         -1.8230     3.2090    -1.1140 ca         1 49W      -0.122500
     32 C18         -1.0760     2.4990    -2.0350 ca         1 49W      -0.118500
     33 C10          1.8810    -0.7020    -3.5120 c3         1 49W       0.135100
     34 O2           3.1940    -0.1740    -3.7090 oh         1 49W      -0.597800
     35 C9           1.9810    -2.1630    -3.0680 c3         1 49W       0.134800
     36 N4           2.6710    -2.9440    -4.1030 n7         1 49W      -0.787200
     37 C7           2.7850    -4.3550    -3.7100 c3         1 49W       0.126900
     38 C12          3.5780    -4.4580    -2.4050 c3         1 49W      -0.104100
     39 C13          1.3880    -4.9410    -3.5050 c3         1 49W      -0.104100
     40 C3           3.4980    -5.1220    -4.7940 ca         1 49W       0.437600
     41 N5           3.9080    -4.4900    -5.8770 nb         1 49W      -0.674000
     42 C1           4.5360    -5.1210    -6.8500 ca         1 49W       0.419200
     43 C6           4.7870    -6.4780    -6.7680 ca         1 49W      -0.259300
     44 C5           4.3710    -7.1750    -5.6440 ca         1 49W      -0.092000
     45 C4           3.7190    -6.4770    -4.6380 ca         1 49W      -0.248300
     46 H1           3.8850    -0.1850     0.3470 ha         1 49W       0.149000
     47 H2           0.1820     0.1920     2.4850 ha         1 49W       0.172000
     48 H3           0.7490     2.3020     4.8870 h4         1 49W       0.145000
     49 H4          -1.4060     1.8980     5.9910 ha         1 49W       0.140000
     50 H5          -1.9070    -0.4470     6.8700 ha         1 49W       0.128000
     51 H6          -0.1430    -2.0970     6.9550 ha         1 49W       0.133000
     52 H7           1.8330    -1.7020     5.5050 h1         1 49W       0.046200
     53 H8           2.0290    -0.4360     6.7310 h1         1 49W       0.046200
     54 H9           3.8780    -0.0010     4.6350 ha         1 49W       0.158000
     55 H10          6.1050     2.4480     4.2520 h1         1 49W       0.060450
     56 H11          4.5570     1.6620     3.9110 h1         1 49W       0.060450
     57 H12          6.6130     0.8110     5.9800 hc         1 49W       0.049450
     58 H13          5.1660    -0.1220     5.5730 hc         1 49W       0.049450
     59 H14          5.4190     2.4380     7.0830 hc         1 49W       0.037033
     60 H15          4.0190     2.2820     6.0140 hc         1 49W       0.037033
     61 H16          4.2810     1.1030     7.3070 hc         1 49W       0.037033
     62 H17          8.0430    -0.3990     2.8920 h1         1 49W       0.060450
     63 H18          8.1350     0.8480     4.1430 h1         1 49W       0.060450
     64 H19          7.7300     1.3510     1.1720 hc         1 49W       0.049450
     65 H20          7.8230     2.5980     2.4240 hc         1 49W       0.049450
     66 H21         10.1100     1.9140     2.9770 hc         1 49W       0.037033
     67 H22         10.0230     0.5940     1.8020 hc         1 49W       0.037033
     68 H23          9.9990     2.2740     1.2490 hc         1 49W       0.037033
     69 H24          2.8840    -0.1100    -1.1710 hn         1 49W       0.332500
     70 H25          0.1540    -0.2690    -2.3080 h1         1 49W       0.090700
     71 H26          0.6420     1.6550    -3.8350 hc         1 49W       0.056200
     72 H27          2.1070     1.9840    -2.8990 hc         1 49W       0.056200
     73 H28          1.9750     2.8320    -0.6270 ha         1 49W       0.126500
     74 H29          0.6430     4.1060     1.0110 ha         1 49W       0.124500
     75 H30         -1.7920     4.3460     0.6990 ha         1 49W       0.125000
     76 H31         -2.8920     3.3170    -1.2530 ha         1 49W       0.124500
     77 H32         -1.5600     2.0460    -2.8920 ha         1 49W       0.126500
     78 H33          1.3250    -0.6440    -4.4400 h1         1 49W       0.038700
     79 H34          3.3240     0.0100    -4.6250 ho         1 49W       0.411000
     80 H35          0.9850    -2.5630    -2.9170 h1         1 49W       0.046700
     81 H36          2.5370    -2.2210    -2.1400 h1         1 49W       0.046700
     82 H37          2.1660    -2.8770    -4.9640 hn         1 49W       0.360800
     83 H39          2.9410    -4.1880    -1.5720 hc         1 49W       0.044700
     84 H40          4.4260    -3.7850    -2.4430 hc         1 49W       0.044700
     85 H41          3.9300    -5.4750    -2.2760 hc         1 49W       0.044700
     86 H42          1.4530    -6.0210    -3.4560 hc         1 49W       0.044700
     87 H43          0.7500    -4.6540    -4.3320 hc         1 49W       0.044700
     88 H44          0.9700    -4.5620    -2.5790 hc         1 49W       0.044700
     89 H45          4.8580    -4.5690    -7.7250 h4         1 49W       0.022100
     90 H46          5.3010    -6.9910    -7.5720 ha         1 49W       0.136000
     91 H47          4.5550    -8.2380    -5.5510 ha         1 49W       0.137000
     92 H48          3.3800    -6.9890    -3.7460 ha         1 49W       0.140000
@<TRIPOS>BOND
     1    39    37 1
     2    38    37 1
     3    37    36 1
     4    37    40 1
     5    36    35 1
     6    40    45 ar
     7    40    41 ar
     8    45    44 ar
     9    34    33 1
    10    41    42 ar
    11    35    33 1
    12    44    43 ar
    13    33    25 1
    14    42    43 ar
    15    25    26 1
    16    25    24 1
    17    26    27 1
    18    24     2 1
    19    27    28 ar
    20    27    32 ar
    21     2     1 2
    22     2     3 1
    23    28    29 ar
    24    32    31 ar
    25     3     5 ar
    26     3     4 ar
    27     5     6 ar
    28     9     8 2
    29     9    10 1
    30     8     7 1
    31    10    11 2
    32     4    14 ar
    33     7     6 1
    34     7    12 1
    35     6    13 ar
    36    29    30 ar
    37    11    12 1
    38    31    30 ar
    39    14    13 ar
    40    14    15 1
    41    23    15 2
    42    15    16 1
    43    16    20 1
    44    16    17 1
    45    21    20 1
    46    21    22 1
    47    17    18 1
    48    18    19 1
    49     4    46 1
    50     5    47 1
    51     8    48 1
    52     9    49 1
    53    10    50 1
    54    11    51 1
    55    12    52 1
    56    12    53 1
    57    13    54 1
    58    17    55 1
    59    17    56 1
    60    18    57 1
    61    18    58 1
    62    19    59 1
    63    19    60 1
    64    19    61 1
    65    20    62 1
    66    20    63 1
    67    21    64 1
    68    21    65 1
    69    22    66 1
    70    22    67 1
    71    22    68 1
    72    24    69 1
    73    25    70 1
    74    26    71 1
    75    26    72 1
    76    28    73 1
    77    29    74 1
    78    30    75 1
    79    31    76 1
    80    32    77 1
    81    33    78 1
    82    34    79 1
    83    35    80 1
    84    35    81 1
    85    36    82 1
    86    38    83 1
    87    38    84 1
    88    38    85 1
    89    39    86 1
    90    39    87 1
    91    39    88 1
    92    42    89 1
    93    43    90 1
    94    44    91 1
    95    45    92 1
@<TRIPOS>SUBSTRUCTURE
     1 49W         1 TEMP              0 ****  ****    0 ROOT
