@<TRIPOS>MOLECULE
49Z
   33    34     1     0     0
SMALL
bcc


@<TRIPOS>ATOM
      1 C16          0.0000     0.0000     0.0000 ca         1 49Z      -0.111000
      2 C17          1.3820     0.0000     0.0000 ca         1 49Z      -0.079000
      3 C14         -0.6930     0.0050     1.1970 ca         1 49Z      -0.071000
      4 C13          2.0730     0.0000     1.1970 ca         1 49Z      -0.130000
      5 C4          -4.1460    -2.7790     8.8480 cc         1 49Z      -0.138000
      6 C5          -3.6690    -2.8640     7.5510 cc         1 49Z      -0.101000
      7 C7          -0.0040     0.0120     2.3940 ca         1 49Z      -0.118300
      8 C6           1.3800     0.0000     2.3960 ca         1 49Z       0.105900
      9 C3          -3.2180    -2.5340     9.7740 cd         1 49Z       0.021600
     10 C2          -2.3520    -2.6950     7.4260 cd         1 49Z       0.000600
     11 C12         -0.7590     0.0180     3.6980 c3         1 49Z       0.031900
     12 C10         -1.5910    -2.7410     6.1260 c3         1 49Z       0.245100
     13 C15         -0.7970    -1.3990     4.2720 c3         1 49Z       0.142800
     14 N9          -1.5330    -1.3930     5.5430 n7         1 49Z      -0.588200
     15 F8           2.0560     0.0060     3.5660 f          1 49Z      -0.129900
     16 S1          -1.6410    -2.3980     9.0060 ss         1 49Z      -0.279800
     17 H1          -0.5410    -0.0030    -0.9390 ha         1 49Z       0.107000
     18 H2           1.9240    -0.0020    -0.9380 ha         1 49Z       0.106000
     19 H3          -1.7760     0.0090     1.1950 ha         1 49Z       0.112000
     20 H4           3.1560    -0.0040     1.1970 ha         1 49Z       0.118000
     21 H5          -5.1950    -2.8980     9.0920 ha         1 49Z       0.122000
     22 H6          -4.3150    -3.0580     6.7040 ha         1 49Z       0.123000
     23 H7          -4.1660    -1.5760    11.4220 hc         1 49Z       0.011367
     24 H8          -3.9150    -3.3160    11.6280 hc         1 49Z       0.011367
     25 H9          -2.5470    -2.2020    11.7670 hc         1 49Z       0.011367
     26 H10         -0.2640     0.6790     4.4000 hc         1 49Z       0.029200
     27 H11         -1.7710     0.3660     3.5280 hc         1 49Z       0.029200
     28 H12         -0.5850    -3.0980     6.3090 h1         1 49Z       0.013700
     29 H13         -2.0920    -3.4100     5.4370 h1         1 49Z       0.013700
     30 H14         -1.2930    -2.0590     3.5710 h1         1 49Z       0.011700
     31 H15          0.2140    -1.7470     4.4420 h1         1 49Z       0.011700
     32 H16         -1.0850    -0.7710     6.1860 hn         1 49Z       0.261800
     33 C11         -3.4800    -2.3980    11.2520 c3         1 49Z       0.104200
@<TRIPOS>BOND
     1     1     2 ar  
     2     1     3 ar  
     3     1    17 1   
     4     2     4 ar  
     5     2    18 1   
     6     3     7 ar  
     7     3    19 1   
     8     4     8 ar  
     9     4    20 1   
    10     5     6 1   
    11     5     9 2   
    12     5    21 1   
    13     6    10 2   
    14     6    22 1   
    15     7     8 ar  
    16     7    11 1   
    17     8    15 1   
    18     9    16 1   
    19     9    33 1   
    20    10    12 1   
    21    10    16 1   
    22    11    13 1   
    23    11    26 1   
    24    11    27 1   
    25    12    14 1   
    26    12    28 1   
    27    12    29 1   
    28    13    14 1   
    29    13    30 1   
    30    13    31 1   
    31    14    32 1   
    32    23    33 1   
    33    24    33 1   
    34    25    33 1   
@<TRIPOS>SUBSTRUCTURE
     1 49Z         1 TEMP              0 ****  ****    0 ROOT
