@<TRIPOS>MOLECULE
molecule
   33    34     1     0     0
SMALL
bcc


@<TRIPOS>ATOM
      1 C16          0.0000     0.0000     0.0000 ca         1 49Z      -0.141000
      2 C17          1.3820     0.0000     0.0000 ca         1 49Z      -0.106000
      3 C14         -0.6930     0.0050     1.1970 ca         1 49Z      -0.099000
      4 C13          2.0730     0.0000     1.1970 ca         1 49Z      -0.164000
      5 C4          -4.1460    -2.7790     8.8480 cc         1 49Z      -0.165000
      6 C5          -3.6690    -2.8640     7.5510 cc         1 49Z      -0.131000
      7 C7          -0.0040     0.0120     2.3940 ca         1 49Z      -0.120300
      8 C6           1.3800     0.0000     2.3960 ca         1 49Z       0.131900
      9 C3          -3.2180    -2.5340     9.7740 cd         1 49Z      -0.018400
     10 C2          -2.3520    -2.6950     7.4260 cd         1 49Z      -0.034400
     11 C12         -0.7590     0.0180     3.6980 c3         1 49Z      -0.034100
     12 C10         -1.5910    -2.7410     6.1260 c3         1 49Z       0.238100
     13 C15         -0.7970    -1.3990     4.2720 c3         1 49Z       0.158800
     14 N9          -1.5330    -1.3930     5.5430 n7         1 49Z      -0.818200
     15 F8           2.0560     0.0060     3.5660 f          1 49Z      -0.142900
     16 S1          -1.6410    -2.3980     9.0060 ss         1 49Z      -0.176800
     17 H1          -0.5410    -0.0030    -0.9390 ha         1 49Z       0.134000
     18 H2           1.9240    -0.0020    -0.9380 ha         1 49Z       0.136000
     19 H3          -1.7760     0.0090     1.1950 ha         1 49Z       0.140000
     20 H4           3.1560    -0.0040     1.1970 ha         1 49Z       0.145000
     21 H5          -5.1950    -2.8980     9.0920 ha         1 49Z       0.147000
     22 H6          -4.3150    -3.0580     6.7040 ha         1 49Z       0.150000
     23 H7          -4.1660    -1.5760    11.4220 hc         1 49Z       0.047700
     24 H8          -3.9150    -3.3160    11.6280 hc         1 49Z       0.047700
     25 H9          -2.5470    -2.2020    11.7670 hc         1 49Z       0.047700
     26 H10         -0.2640     0.6790     4.4000 hc         1 49Z       0.060700
     27 H11         -1.7710     0.3660     3.5280 hc         1 49Z       0.060700
     28 H12         -0.5850    -3.0980     6.3090 h1         1 49Z       0.043200
     29 H13         -2.0920    -3.4100     5.4370 h1         1 49Z       0.043200
     30 H14         -1.2930    -2.0590     3.5710 h1         1 49Z       0.037700
     31 H15          0.2140    -1.7470     4.4420 h1         1 49Z       0.037700
     32 H16         -1.0850    -0.7710     6.1860 hn         1 49Z       0.358800
     33 C11         -3.4800    -2.3980    11.2520 c3         1 49Z      -0.015800
@<TRIPOS>BOND
     1    33     9 1
     2     9     5 2
     3     9    16 1
     4     5     6 1
     5     6    10 2
     6    16    10 1
     7    10    12 1
     8    12    14 1
     9    14    13 1
    10    13    11 1
    11    11     7 1
    12     3     7 ar
    13     3     1 ar
    14     7     8 ar
    15     1     2 ar
    16     8    15 1
    17     8     4 ar
    18     2     4 ar
    19     1    17 1
    20     2    18 1
    21     3    19 1
    22     4    20 1
    23     5    21 1
    24     6    22 1
    25    33    23 1
    26    33    24 1
    27    33    25 1
    28    11    26 1
    29    11    27 1
    30    12    28 1
    31    12    29 1
    32    13    30 1
    33    13    31 1
    34    14    32 1
@<TRIPOS>SUBSTRUCTURE
     1 49Z         1 TEMP              0 ****  ****    0 ROOT
