@<TRIPOS>MOLECULE
4A0
   48    51     1     0     0
SMALL
bcc


@<TRIPOS>ATOM
      1 C20          0.0000     0.0000     0.0000 ca         1 4A0      -0.130000
      2 C21          1.3840     0.0000     0.0000 ca         1 4A0      -0.070000
      3 C17         -0.6930    -0.0010     1.1950 ca         1 4A0      -0.072000
      4 C18          2.0750     0.0000     1.1960 ca         1 4A0      -0.173000
      5 C5          -0.0060    -0.0060     2.3940 ca         1 4A0      -0.129300
      6 C9           1.3810     0.0000     2.3970 ca         1 4A0       0.159100
      7 C10         -3.8120     1.5110     9.4980 c3         1 4A0      -0.015400
      8 C11         -4.5150     3.8620     9.0250 c3         1 4A0      -0.015400
      9 C12         -2.3890     3.4170    10.2590 c3         1 4A0      -0.015400
     10 C6          -3.7390     2.3910     7.1600 c3         1 4A0      -0.018067
     11 C8          -1.6130     1.9460     8.3950 c3         1 4A0      -0.018067
     12 C7          -2.3160     4.2960     7.9210 c3         1 4A0      -0.018067
     13 C2          -4.5020     2.4300     8.4860 c3         1 4A0      -0.039700
     14 C4          -2.3750     1.9850     9.7210 c3         1 4A0      -0.039700
     15 C3          -3.0770     4.3360     9.2480 c3         1 4A0      -0.039700
     16 C1          -2.3020     2.8650     7.3840 c3         1 4A0      -0.056000
     17 C16         -0.7620    -0.0070     3.6980 c3         1 4A0       0.214100
     18 C15         -1.5410     2.8260     6.0570 c3         1 4A0      -0.021400
     19 C19         -1.5270     1.3930     5.5190 c3         1 4A0       0.123800
     20 N13         -0.7960     1.3550     4.2450 n7         1 4A0      -0.573200
     21 O14          2.0600    -0.0000     3.5750 oh         1 4A0      -0.477100
     22 H1          -0.5410     0.0020    -0.9390 ha         1 4A0       0.104000
     23 H2           1.9250     0.0000    -0.9380 ha         1 4A0       0.101000
     24 H3          -1.7760    -0.0030     1.1930 ha         1 4A0       0.103000
     25 H4           3.1590     0.0030     1.1950 ha         1 4A0       0.111000
     26 H6          -3.8030     0.4970     9.1170 hc         1 4A0       0.013700
     27 H7          -5.0540     3.8890     9.9640 hc         1 4A0       0.013700
     28 H8          -5.0040     4.5120     8.3090 hc         1 4A0       0.013700
     29 H9          -2.9280     3.4450    11.1980 hc         1 4A0       0.013700
     30 H10         -1.3710     3.7530    10.4170 hc         1 4A0       0.013700
     31 H11         -3.7300     1.3770     6.7790 hc         1 4A0       0.019200
     32 H12         -4.2270     3.0410     6.4440 hc         1 4A0       0.019200
     33 H13         -0.5960     2.2830     8.5530 hc         1 4A0       0.019200
     34 H14         -1.6030     0.9320     8.0140 hc         1 4A0       0.019200
     35 H15         -2.8040     4.9470     7.2050 hc         1 4A0       0.019200
     36 H16         -1.2980     4.6330     8.0790 hc         1 4A0       0.019200
     37 H17         -5.5190     2.0930     8.3280 hc         1 4A0       0.022033
     38 H18         -1.8880     1.3350    10.4380 hc         1 4A0       0.022033
     39 H19         -3.0860     5.3500     9.6290 hc         1 4A0       0.022033
     40 H20         -1.7750    -0.3530     3.5270 h1         1 4A0       0.008700
     41 H21         -0.2690    -0.6670     4.4010 h1         1 4A0       0.008700
     42 H22         -0.5230     3.1620     6.2150 hc         1 4A0       0.022700
     43 H23         -2.0290     3.4760     5.3410 hc         1 4A0       0.022700
     44 H24         -1.0390     0.7430     6.2350 h1         1 4A0       0.014200
     45 H25         -2.5450     1.0570     5.3610 h1         1 4A0       0.014200
     46 H26         -1.2370     1.9680     3.5880 hn         1 4A0       0.251800
     47 H28          2.6610    -0.7260     3.5910 ho         1 4A0       0.396000
     48 H5          -4.3520     1.5390    10.4370 hc         1 4A0       0.013700
@<TRIPOS>BOND
     1     1     2 ar  
     2     1     3 ar  
     3     1    22 1   
     4     2     4 ar  
     5     2    23 1   
     6     3     5 ar  
     7     3    24 1   
     8     4     6 ar  
     9     4    25 1   
    10     5     6 ar  
    11     5    17 1   
    12     6    21 1   
    13     7    13 1   
    14     7    14 1   
    15     7    26 1   
    16     7    48 1   
    17     8    13 1   
    18     8    15 1   
    19     8    27 1   
    20     8    28 1   
    21     9    14 1   
    22     9    15 1   
    23     9    29 1   
    24     9    30 1   
    25    10    13 1   
    26    10    16 1   
    27    10    31 1   
    28    10    32 1   
    29    11    14 1   
    30    11    16 1   
    31    11    33 1   
    32    11    34 1   
    33    12    15 1   
    34    12    16 1   
    35    12    35 1   
    36    12    36 1   
    37    13    37 1   
    38    14    38 1   
    39    15    39 1   
    40    16    18 1   
    41    17    20 1   
    42    17    40 1   
    43    17    41 1   
    44    18    19 1   
    45    18    42 1   
    46    18    43 1   
    47    19    20 1   
    48    19    44 1   
    49    19    45 1   
    50    20    46 1   
    51    21    47 1   
@<TRIPOS>SUBSTRUCTURE
     1 4A0         1 TEMP              0 ****  ****    0 ROOT
