@<TRIPOS>MOLECULE
molecule
   48    51     1     0     0
SMALL
bcc


@<TRIPOS>ATOM
      1 C20          0.0000     0.0000     0.0000 ca         1 4A0      -0.149000
      2 C21          1.3840     0.0000     0.0000 ca         1 4A0      -0.104000
      3 C17         -0.6930    -0.0010     1.1950 ca         1 4A0      -0.106000
      4 C18          2.0750     0.0000     1.1960 ca         1 4A0      -0.188000
      5 C5          -0.0060    -0.0060     2.3940 ca         1 4A0      -0.108300
      6 C9           1.3810     0.0000     2.3970 ca         1 4A0       0.140100
      7 C10         -3.8120     1.5110     9.4980 c3         1 4A0      -0.067400
      8 C11         -4.5150     3.8620     9.0250 c3         1 4A0      -0.067400
      9 C12         -2.3890     3.4170    10.2590 c3         1 4A0      -0.067400
     10 C6          -3.7390     2.3910     7.1600 c3         1 4A0      -0.062733
     11 C8          -1.6130     1.9460     8.3950 c3         1 4A0      -0.062733
     12 C7          -2.3160     4.2960     7.9210 c3         1 4A0      -0.062733
     13 C2          -4.5020     2.4300     8.4860 c3         1 4A0      -0.065367
     14 C4          -2.3750     1.9850     9.7210 c3         1 4A0      -0.065367
     15 C3          -3.0770     4.3360     9.2480 c3         1 4A0      -0.065367
     16 C1          -2.3020     2.8650     7.3840 c3         1 4A0      -0.057000
     17 C16         -0.7620    -0.0070     3.6980 c3         1 4A0       0.215100
     18 C15         -1.5410     2.8260     6.0570 c3         1 4A0      -0.072400
     19 C19         -1.5270     1.3930     5.5190 c3         1 4A0       0.151800
     20 N13         -0.7960     1.3550     4.2450 n7         1 4A0      -0.807200
     21 O14          2.0600    -0.0000     3.5750 oh         1 4A0      -0.498100
     22 H1          -0.5410     0.0020    -0.9390 ha         1 4A0       0.131000
     23 H2           1.9250     0.0000    -0.9380 ha         1 4A0       0.131000
     24 H3          -1.7760    -0.0030     1.1930 ha         1 4A0       0.131000
     25 H4           3.1590     0.0030     1.1950 ha         1 4A0       0.135000
     26 H6          -3.8030     0.4970     9.1170 hc         1 4A0       0.039700
     27 H7          -5.0540     3.8890     9.9640 hc         1 4A0       0.039700
     28 H8          -5.0040     4.5120     8.3090 hc         1 4A0       0.039700
     29 H9          -2.9280     3.4450    11.1980 hc         1 4A0       0.039700
     30 H10         -1.3710     3.7530    10.4170 hc         1 4A0       0.039700
     31 H11         -3.7300     1.3770     6.7790 hc         1 4A0       0.042533
     32 H12         -4.2270     3.0410     6.4440 hc         1 4A0       0.042533
     33 H13         -0.5960     2.2830     8.5530 hc         1 4A0       0.042533
     34 H14         -1.6030     0.9320     8.0140 hc         1 4A0       0.042533
     35 H15         -2.8040     4.9470     7.2050 hc         1 4A0       0.042533
     36 H16         -1.2980     4.6330     8.0790 hc         1 4A0       0.042533
     37 H17         -5.5190     2.0930     8.3280 hc         1 4A0       0.046367
     38 H18         -1.8880     1.3350    10.4380 hc         1 4A0       0.046367
     39 H19         -3.0860     5.3500     9.6290 hc         1 4A0       0.046367
     40 H20         -1.7750    -0.3530     3.5270 h1         1 4A0       0.037200
     41 H21         -0.2690    -0.6670     4.4010 h1         1 4A0       0.037200
     42 H22         -0.5230     3.1620     6.2150 hc         1 4A0       0.050200
     43 H23         -2.0290     3.4760     5.3410 hc         1 4A0       0.050200
     44 H24         -1.0390     0.7430     6.2350 h1         1 4A0       0.033200
     45 H25         -2.5450     1.0570     5.3610 h1         1 4A0       0.033200
     46 H26         -1.2370     1.9680     3.5880 hn         1 4A0       0.351800
     47 H28          2.6610    -0.7260     3.5910 ho         1 4A0       0.414000
     48 H5          -4.3520     1.5390    10.4370 hc         1 4A0       0.039700
@<TRIPOS>BOND
     1     2     4 ar  
     2     2     1 ar  
     3     4     6 ar  
     4     1     3 ar  
     5     6    21 1   
     6     6     5 ar  
     7     3     5 ar  
     8     5    17 1   
     9    17    20 1   
    10    20    19 1   
    11    19    18 1   
    12    18    16 1   
    13    12    16 1   
    14    12    15 1   
    15    16    11 1   
    16    16    10 1   
    17    15     9 1   
    18    15     8 1   
    19    11    14 1   
    20     9    14 1   
    21    10    13 1   
    22     8    13 1   
    23    14     7 1   
    24    13     7 1   
    25     1    22 1   
    26     2    23 1   
    27     3    24 1   
    28     4    25 1   
    29     7    48 1   
    30     7    26 1   
    31     8    27 1   
    32     8    28 1   
    33     9    29 1   
    34     9    30 1   
    35    10    31 1   
    36    10    32 1   
    37    11    33 1   
    38    11    34 1   
    39    12    35 1   
    40    12    36 1   
    41    13    37 1   
    42    14    38 1   
    43    15    39 1   
    44    17    40 1   
    45    17    41 1   
    46    18    42 1   
    47    18    43 1   
    48    19    44 1   
    49    19    45 1   
    50    20    46 1   
    51    21    47 1   
@<TRIPOS>SUBSTRUCTURE
     1 4A0         1 TEMP              0 ****  ****    0 ROOT
