@<TRIPOS>MOLECULE
4A1
   28    28     1     0     0
SMALL
bcc


@<TRIPOS>ATOM
      1 C01          0.0000     0.0000     0.0000 c3         1 4A1       0.004600
      2 C02          1.5300     0.0000     0.0000 c3         1 4A1       0.006900
      3 C1          -1.9770     0.7880     5.2060 ca         1 4A1      -0.149600
      4 N1          -2.7360    -0.0000     3.0470 nu         1 4A1      -0.374500
      5 O1          -1.7110    -0.8180     7.0290 o          1 4A1      -0.883300
      6 S1          -2.3230     0.0000     1.4440 s6         1 4A1       0.935900
      7 C2          -2.3260     1.0400     3.8700 ca         1 4A1       0.088600
      8 O2          -2.4100    -1.4960     5.0330 o          1 4A1      -0.883300
      9 C3          -2.2600     2.3370     3.3750 ca         1 4A1      -0.229000
     10 O3          -2.8230    -1.2370     0.9530 o          1 4A1      -0.608800
     11 C4          -1.8530     3.3690     4.1950 ca         1 4A1      -0.097000
     12 O4          -2.8220     1.2380     0.9540 o          1 4A1      -0.608800
     13 C5          -1.5060     3.1240     5.5140 ca         1 4A1      -0.174000
     14 C6          -1.5660     1.8450     6.0230 ca         1 4A1      -0.041000
     15 C8          -0.5100     0.0000     1.4430 c3         1 4A1      -0.020600
     16 H1          -0.3610    -0.8850    -0.5110 hc         1 4A1       0.019200
     17 H2          -0.3610     0.8850    -0.5110 hc         1 4A1       0.019200
     18 H3           1.8910     0.0000    -1.0210 hc         1 4A1      -0.001300
     19 H4           1.8910    -0.8850     0.5110 hc         1 4A1      -0.001300
     20 H5           1.8910     0.8840     0.5110 hc         1 4A1      -0.001300
     21 H6          -3.3230    -0.7240     3.4120 hn         1 4A1       0.404800
     22 H8          -2.5290     2.5380     2.3450 ha         1 4A1       0.161000
     23 H9          -1.8030     4.3790     3.8050 ha         1 4A1       0.081000
     24 H10         -1.1880     3.9420     6.1490 ha         1 4A1       0.084000
     25 H11         -1.2950     1.6590     7.0550 ha         1 4A1       0.127000
     26 H12         -0.1480    -0.8850     1.9530 h1         1 4A1       0.079200
     27 H13         -0.1480     0.8840     1.9530 h1         1 4A1       0.079200
     28 C7          -2.0490    -0.5810     5.7450 c          1 4A1       0.985200
@<TRIPOS>BOND
     1     1     2 1   
     2     1    15 1   
     3     1    16 1   
     4     1    17 1   
     5     2    18 1   
     6     2    19 1   
     7     2    20 1   
     8     3     7 ar  
     9     3    14 ar  
    10     3    28 1   
    11     4     6 1   
    12     4     7 1   
    13     4    21 1   
    14     5    28 1   
    15     6    10 2   
    16     6    12 2   
    17     6    15 1   
    18     7     9 ar  
    19     8    28 1   
    20     9    11 ar  
    21     9    22 1   
    22    11    13 ar  
    23    11    23 1   
    24    13    14 ar  
    25    13    24 1   
    26    14    25 1   
    27    15    26 1   
    28    15    27 1   
@<TRIPOS>SUBSTRUCTURE
     1 4A1         1 TEMP              0 ****  ****    0 ROOT
