@<TRIPOS>MOLECULE
molecule
   49    52     1     0     0
SMALL
bcc


@<TRIPOS>ATOM
      1 FAA          0.0000     0.0000     0.0000 f          1 4A2      -0.225967
      2 CAC          1.3990     0.0000     0.0000 c3         1 4A2       0.671200
      3 FAB          1.8650     0.0000     1.3190 f          1 4A2      -0.225967
      4 FAG          1.8650    -1.1420    -0.6590 f          1 4A2      -0.225967
      5 CAD          1.9020     1.2310    -0.7100 ca         1 4A2      -0.183300
      6 CAE          1.0060     2.0950    -1.3120 ca         1 4A2      -0.087000
      7 CAF          1.4670     3.2240    -1.9630 ca         1 4A2      -0.142000
      8 CAK          2.8240     3.4880    -2.0120 ca         1 4A2      -0.097000
      9 CAJ          3.7180     2.6240    -1.4100 ca         1 4A2      -0.101000
     10 CAI          3.2570     1.4980    -0.7540 ca         1 4A2      -0.047300
     11 CAH          4.2320     0.5590    -0.0920 c3         1 4A2       0.108600
     12 NAP          5.5860     1.1110    -0.1910 na         1 4A2      -0.184300
     13 CAO          6.2210     1.8820     0.7720 ca         1 4A2      -0.073200
     14 CAN          5.8220     2.3400     2.0230 ca         1 4A2      -0.154000
     15 CAM          6.6770     3.1060     2.7830 ca         1 4A2      -0.082000
     16 CAW          7.9500     3.4270     2.3000 ca         1 4A2      -0.088600
     17 CAV          8.8650     4.2470     3.1150 c          1 4A2       0.882200
     18 OAL          8.4740     4.6880     4.3270 o          1 4A2      -0.828800
     19 OBG          9.9700     4.5250     2.6950 o          1 4A2      -0.828800
     20 CAX          8.3540     2.9680     1.0430 ca         1 4A2      -0.104000
     21 CAY          7.4920     2.1990     0.2820 ca         1 4A2      -0.075200
     22 NAZ          7.6110     1.6120    -0.9760 na         1 4A2      -0.339300
     23 CBA          6.4430     0.9490    -1.2480 cc         1 4A2       0.634300
     24 NBB          6.1870     0.2690    -2.3440 nf         1 4A2      -0.780100
     25 CBC          7.0770     0.2870    -3.3850 ca         1 4A2       0.217400
     26 CBD          7.4170    -0.9010    -4.0360 ca         1 4A2      -0.162000
     27 CBE          8.3150    -0.8780    -5.0850 ca         1 4A2       0.125900
     28 FBF          8.6450    -2.0260    -5.7170 f          1 4A2      -0.141900
     29 CAS          8.8790     0.3250    -5.4920 ca         1 4A2       0.053100
     30 OAT          9.7630     0.3450    -6.5260 os         1 4A2      -0.326900
     31 CAU         10.3050     1.6150    -6.8930 c3         1 4A2       0.131700
     32 CAR          8.5430     1.5060    -4.8480 ca         1 4A2      -0.170000
     33 CAQ          7.6420     1.4940    -3.8020 ca         1 4A2      -0.203000
     34 HAE         -0.0570     1.8880    -1.2740 ha         1 4A2       0.142000
     35 HAF          0.7670     3.9020    -2.4360 ha         1 4A2       0.131000
     36 HAK          3.1850     4.3710    -2.5240 ha         1 4A2       0.135000
     37 HAJ          4.7810     2.8330    -1.4470 ha         1 4A2       0.159000
     38 HAH1         4.1980    -0.4040    -0.5870 h1         1 4A2       0.089200
     39 HAH2         3.9660     0.4390     0.9510 h1         1 4A2       0.089200
     40 HAN          4.8370     2.0940     2.4010 ha         1 4A2       0.119000
     41 HAM          6.3640     3.4610     3.7570 ha         1 4A2       0.167000
     42 HAX          9.3390     3.2150     0.6660 ha         1 4A2       0.155000
     43 HAZ          8.4120     1.6620    -1.5750 hn         1 4A2       0.324700
     44 HBD          6.9320    -1.8290    -3.7590 ha         1 4A2       0.158000
     45 HAQ          7.3810     2.4170    -3.3000 ha         1 4A2       0.140000
     46 HAR          8.9840     2.4420    -5.1700 ha         1 4A2       0.133000
     47 HAU1        10.8350     2.0390    -6.0480 h1         1 4A2       0.036700
     48 HAU2        10.9910     1.4890    -7.7220 h1         1 4A2       0.036700
     49 HAU3         9.5020     2.2800    -7.1860 h1         1 4A2       0.036700
@<TRIPOS>BOND
     1     1     2 1   
     2     2     3 1   
     3     2     4 1   
     4     2     5 1   
     5     5     6 ar  
     6     5    10 ar  
     7     6     7 ar  
     8     7     8 ar  
     9     8     9 ar  
    10     9    10 ar  
    11    10    11 1   
    12    11    12 1   
    13    12    13 1   
    14    12    23 1   
    15    13    14 ar  
    16    13    21 ar  
    17    14    15 ar  
    18    15    16 ar  
    19    16    17 1   
    20    16    20 ar  
    21    17    18 1   
    22    17    19 1   
    23    20    21 ar  
    24    21    22 1   
    25    22    23 1   
    26    23    24 2   
    27    24    25 1   
    28    25    26 ar  
    29    25    33 ar  
    30    26    27 ar  
    31    27    28 1   
    32    27    29 ar  
    33    29    30 1   
    34    29    32 ar  
    35    30    31 1   
    36    32    33 ar  
    37     6    34 1   
    38     7    35 1   
    39     8    36 1   
    40     9    37 1   
    41    11    38 1   
    42    11    39 1   
    43    14    40 1   
    44    15    41 1   
    45    20    42 1   
    46    22    43 1   
    47    26    44 1   
    48    33    45 1   
    49    32    46 1   
    50    31    47 1   
    51    31    48 1   
    52    31    49 1   
@<TRIPOS>SUBSTRUCTURE
     1 4A2         1 TEMP              0 ****  ****    0 ROOT
