@<TRIPOS>MOLECULE
molecule
   17    17     1     0     0
SMALL
bcc


@<TRIPOS>ATOM
      1 C3           0.0000     0.0000     0.0000 ca         1 4A3      -0.206000
      2 C5           0.0050     0.0110     2.4030 ca         1 4A3      -0.121600
      3 C8          -0.7350     0.0180     3.6780 c          1 4A3       0.886200
      4 O9           3.4510     0.0010     1.2050 oh         1 4A3      -0.536100
      5 C2           1.3910     0.0000     0.0000 ca         1 4A3       0.149600
      6 C4          -0.6910     0.0050     1.1900 ca         1 4A3      -0.078000
      7 C6           1.4030     0.0110     2.4040 ca         1 4A3      -0.123000
      8 C7           2.0910     0.0000     1.2080 ca         1 4A3       0.014100
      9 O10         -0.1290     0.0220     4.7320 o          1 4A3      -0.842300
     10 O11         -2.0830     0.0170     3.6750 o          1 4A3      -0.842300
     11 N1           2.0860    -0.0050    -1.2070 nv         1 4A3      -0.950200
     12 H3          -0.5400     0.0060    -0.9390 ha         1 4A3       0.110000
     13 HO9          3.7670    -0.7470     1.6840 ho         1 4A3       0.403000
     14 H4          -1.7750     0.0210     1.1870 ha         1 4A3       0.154000
     15 H6           1.9440    -0.0150     3.3420 ha         1 4A3       0.149000
     16 HN11         1.7390    -0.5360    -1.9810 hn         1 4A3       0.415800
     17 HN12         2.9400     0.5090    -1.2940 hn         1 4A3       0.415800
@<TRIPOS>BOND
     1     1     5 ar  
     2     1     6 ar  
     3     1    12 1   
     4     2     3 1   
     5     2     6 ar  
     6     2     7 ar  
     7     3     9 1   
     8     3    10 1   
     9     4     8 1   
    10     4    13 1   
    11     5     8 ar  
    12     5    11 1   
    13     6    14 1   
    14     7     8 ar  
    15     7    15 1   
    16    11    16 1   
    17    11    17 1   
@<TRIPOS>SUBSTRUCTURE
     1 4A3         1 TEMP              0 ****  ****    0 ROOT
