@<TRIPOS>MOLECULE
molecule
   21    22     1     0     0
SMALL
bcc


@<TRIPOS>ATOM
      1 C5           0.0000     0.0000     0.0000 cc         1 4A5      -0.098300
      2 C4           1.3540     0.0000     0.0000 cc         1 4A5      -0.241200
      3 C1           1.7840     0.0000     1.3320 cc         1 4A5       0.364600
      4 C10         -2.0270    -1.1570     2.6770 c          1 4A5       0.878600
      5 C8           3.7390    -1.0110     2.7560 cx         1 4A5      -0.134900
      6 C9           3.3140     0.2870     3.4470 cx         1 4A5      -0.134900
      7 C6           3.1690     0.1450     1.9310 cx         1 4A5      -0.145000
      8 N3           0.7270     0.0010     2.1030 nd         1 4A5      -0.458800
      9 N2          -0.4110     0.0000     1.2870 na         1 4A5       0.138400
     10 O12         -1.1190    -1.9140     2.9300 o          1 4A5      -0.821800
     11 O13         -3.2490    -1.3810     3.1880 o          1 4A5      -0.821800
     12 Br1          2.4660    -0.0020    -1.5290 br         1 4A5      -0.131100
     13 H1          -0.6390     0.0000    -0.8750 h4         1 4A5       0.165000
     14 H2           4.8070    -1.1650     2.6690 hc         1 4A5       0.077200
     15 H3           3.0750    -1.8550     2.8990 hc         1 4A5       0.077200
     16 H4           4.1230     0.9240     3.7820 hc         1 4A5       0.077200
     17 H5           2.3910     0.2350     4.0120 hc         1 4A5       0.077200
     18 H6           3.9300     0.6730     1.3690 hc         1 4A5       0.074700
     19 H7          -2.4650    -0.0790     0.8950 h1         1 4A5       0.054200
     20 H8          -2.0050     0.9320     2.2710 h1         1 4A5       0.054200
     21 C7          -1.8020     0.0060     1.7470 c3         1 4A5      -0.052700
@<TRIPOS>BOND
     1     6     5 1   
     2     6     7 1   
     3     5     7 1   
     4     7     3 1   
     5    12     2 1   
     6     3     2 1   
     7     3     8 2   
     8     2     1 2   
     9     8     9 1   
    10     1     9 1   
    11     9    21 1   
    12    10     4 1   
    13     4    21 1   
    14     4    11 1   
    15     1    13 1   
    16     5    14 1   
    17     5    15 1   
    18     6    16 1   
    19     6    17 1   
    20     7    18 1   
    21    21    19 1   
    22    21    20 1   
@<TRIPOS>SUBSTRUCTURE
     1 4A5         1 TEMP              0 ****  ****    0 ROOT
