@<TRIPOS>MOLECULE
4A5
   21    21     1     0     0
SMALL
bcc


@<TRIPOS>ATOM
      1 C5          0.4170    0.5560   -0.9860 c2        1 4A5     -0.262000
      2 C4          1.7900    0.4770   -0.7230 c2        1 4A5     -0.178000
      3 C1          1.8790    0.0960    0.6860 c2        1 4A5     -0.249000
      4 C10        -3.0750   -1.5130    3.3590 cu        1 4A5      0.272000
      5 C8          4.4400   -0.6270    3.3520 c3        1 4A5     -0.184000
      6 C9          3.0380   -0.4850    2.8050 c3        1 4A5     -0.153000
      7 C6          3.0480   -0.1010    1.3890 c1        1 4A5     -0.154000
      8 N3          0.5300   -0.0180    1.1370 n2        1 4A5     -0.131000
      9 N2         -0.2830    0.2410    0.2010 n2        1 4A5     -0.156000
     10 O12        -3.7200   -2.5160    3.5660 o         1 4A5     -0.265000
     11 O13        -3.1460   -0.2620    3.9320 os        1 4A5     -0.312000
     12 BR1         3.1700    0.7850   -1.8950 br        1 4A5      0.029000
     13 H1         -0.1040    0.8070   -1.9040 h4        1 4A5      0.142000
     14 H2          5.0030   -1.4040    2.7820 hc        1 4A5      0.053000
     15 H3          4.9920    0.3380    3.2590 hc        1 4A5      0.053000
     16 H4          4.4150   -0.9220    4.4300 hc        1 4A5      0.053000
     17 H5          2.4830    0.2810    3.4150 hc        1 4A5      0.070500
     18 H6          2.4930   -1.4620    2.9380 hc        1 4A5      0.070500
     19 H7         -1.0870   -0.5070    3.2150 h1        1 4A5      0.176000
     20 H8         -2.3210    0.0170    1.9190 h1        1 4A5      0.176000
     21 C7         -2.1390   -0.5230    2.8690 cx        1 4A5     -0.047000
@<TRIPOS>BOND
     1    1    2 1   
     2    1    9 1   
     3    1   13 1   
     4    2    3 1   
     5    2   12 1   
     6    3    7 1   
     7    3    8 1   
     8    4   10 1   
     9    4   11 1   
    10    4   21 1   
    11    5    6 1   
    12    5   14 1   
    13    5   15 1   
    14    5   16 1   
    15    6    7 1   
    16    6   17 1   
    17    6   18 1   
    18    8    9 1   
    19   11   21 1   
    20   19   21 1   
    21   20   21 1   
@<TRIPOS>SUBSTRUCTURE
     1 4A5         1 TEMP              0 ****  ****    0 ROOT
