@<TRIPOS>MOLECULE
4A7
   46    48     1     0     0
SMALL
bcc


@<TRIPOS>ATOM
      1 NAO          0.0000     0.0000     0.0000 nu         1 4A7      -0.392500
      2 CAS          1.3990     0.0000     0.0000 ca         1 4A7       0.041600
      3 CAK          2.0940     0.0000     1.2030 ca         1 4A7      -0.100000
      4 CAU          3.4740     0.0000     1.2010 ca         1 4A7      -0.113300
      5 CAN          4.2310     0.0000     2.5040 c3         1 4A7       0.041900
      6 CAM          5.5210    -0.8060     2.3450 c3         1 4A7      -0.093400
      7 CAR          6.2480    -0.3710     1.1010 c          1 4A7       0.612500
      8 OAD          7.4610    -0.3520     1.0920 o          1 4A7      -0.676500
      9 NAY          5.5690    -0.0010    -0.0000 n          1 4A7       0.019000
     10 CAC          6.2980     0.4030    -1.2040 c3         1 4A7       0.055300
     11 CAW          4.1680    -0.0000    -0.0020 ca         1 4A7      -0.081400
     12 CAI          3.4740     0.0020    -1.2040 ca         1 4A7      -0.119000
     13 CAG          2.0930    -0.0050    -1.2040 ca         1 4A7      -0.118000
     14 CAB         -1.7020     2.7730     2.9340 c3         1 4A7       0.249700
     15 CAV         -0.8040     3.1180     0.7600 ca         1 4A7       0.286100
     16 CAL         -0.4890     4.4100     1.1540 ca         1 4A7      -0.284000
     17 CAT          0.1850     5.2530     0.2840 ca         1 4A7       0.243100
     18 OAP          0.4940     6.5190     0.6680 os         1 4A7      -0.306900
     19 CAA          1.1900     7.3320    -0.2790 c3         1 4A7       0.245700
     20 CAH          0.5450     4.8020    -0.9780 ca         1 4A7      -0.283000
     21 CAJ          0.2300     3.5150    -1.3690 ca         1 4A7       0.090000
     22 CAX         -0.4370     2.6710    -0.5020 ca         1 4A7      -0.234500
     23 SAZ         -0.8300     1.0260    -1.0000 sy         1 4A7       1.049200
     24 OAE         -0.2740     0.8570    -2.2980 o          1 4A7      -0.585800
     25 OAF         -2.2080     0.8390    -0.7150 o          1 4A7      -0.585800
     26 H1          -0.5000    -0.6430     0.5810 hn         1 4A7       0.346800
     27 H2           1.5530    -0.0570     2.1400 ha         1 4A7       0.111000
     28 H3           3.6190    -0.4490     3.2760 hc         1 4A7       0.024200
     29 H4           4.4760     1.0200     2.7770 hc         1 4A7       0.024200
     30 H5           5.2770    -1.8590     2.2670 hc         1 4A7       0.042200
     31 H6           6.1550    -0.6410     3.2070 hc         1 4A7       0.042200
     32 H7           5.8510     1.3000    -1.6130 h1         1 4A7       0.022367
     33 H8           7.3330     0.5980    -0.9500 h1         1 4A7       0.022367
     34 H9           6.2510    -0.3920    -1.9380 h1         1 4A7       0.022367
     35 H10          4.0150    -0.0020    -2.1420 ha         1 4A7       0.118000
     36 H11          1.5520    -0.0770    -2.1400 ha         1 4A7       0.165000
     37 H12         -2.3860     3.6120     2.8940 h1         1 4A7       0.001367
     38 H13         -2.1270     1.9890     3.5480 h1         1 4A7       0.001367
     39 H14         -0.7590     3.0950     3.3600 h1         1 4A7       0.001367
     40 H15         -0.8220     4.7790     2.1160 ha         1 4A7       0.139000
     41 H16          0.5900     7.4390    -1.1740 h1         1 4A7       0.000700
     42 H17          2.1350     6.8650    -0.5310 h1         1 4A7       0.000700
     43 H18          1.3740     8.3100     0.1510 h1         1 4A7       0.000700
     44 H19          1.0700     5.4610    -1.6590 ha         1 4A7       0.129000
     45 H20          0.5140     3.1640    -2.3540 ha         1 4A7       0.127000
     46 OAQ         -1.4650     2.2890     1.6100 os         1 4A7      -0.303900
@<TRIPOS>BOND
     1     1     2 1   
     2     1    23 1   
     3     1    26 1   
     4     2     3 ar  
     5     2    13 ar  
     6     3     4 ar  
     7     3    27 1   
     8     4     5 1   
     9     4    11 ar  
    10     5     6 1   
    11     5    28 1   
    12     5    29 1   
    13     6     7 1   
    14     6    30 1   
    15     6    31 1   
    16     7     8 2   
    17     7     9 1   
    18     9    10 1   
    19     9    11 1   
    20    10    32 1   
    21    10    33 1   
    22    10    34 1   
    23    11    12 ar  
    24    12    13 ar  
    25    12    35 1   
    26    13    36 1   
    27    14    37 1   
    28    14    38 1   
    29    14    39 1   
    30    14    46 1   
    31    15    16 ar  
    32    15    22 ar  
    33    15    46 1   
    34    16    17 ar  
    35    16    40 1   
    36    17    18 1   
    37    17    20 ar  
    38    18    19 1   
    39    19    41 1   
    40    19    42 1   
    41    19    43 1   
    42    20    21 ar  
    43    20    44 1   
    44    21    22 ar  
    45    21    45 1   
    46    22    23 1   
    47    23    24 2   
    48    23    25 2   
@<TRIPOS>SUBSTRUCTURE
     1 4A7         1 TEMP              0 ****  ****    0 ROOT
