@<TRIPOS>MOLECULE
molecule
   46    48     1     0     0
SMALL
bcc


@<TRIPOS>ATOM
      1 NAO          0.0000     0.0000     0.0000 nu         1 4A7      -0.766500
      2 CAS          1.3990     0.0000     0.0000 ca         1 4A7       0.116600
      3 CAK          2.0940     0.0000     1.2030 ca         1 4A7      -0.113000
      4 CAU          3.4740     0.0000     1.2010 ca         1 4A7      -0.115300
      5 CAN          4.2310     0.0000     2.5040 c3         1 4A7      -0.031100
      6 CAM          5.5210    -0.8060     2.3450 c3         1 4A7      -0.151400
      7 CAR          6.2480    -0.3710     1.1010 c          1 4A7       0.703500
      8 OAD          7.4610    -0.3520     1.0920 o          1 4A7      -0.633500
      9 NAY          5.5690    -0.0010    -0.0000 n          1 4A7      -0.375000
     10 CAC          6.2980     0.4030    -1.2040 c3         1 4A7       0.089300
     11 CAW          4.1680    -0.0000    -0.0020 ca         1 4A7       0.063600
     12 CAI          3.4740     0.0020    -1.2040 ca         1 4A7      -0.149000
     13 CAG          2.0930    -0.0050    -1.2040 ca         1 4A7      -0.130000
     14 CAB         -1.7020     2.7730     2.9340 c3         1 4A7       0.130700
     15 CAV         -0.8040     3.1180     0.7600 ca         1 4A7       0.267100
     16 CAL         -0.4890     4.4100     1.1540 ca         1 4A7      -0.276000
     17 CAT          0.1850     5.2530     0.2840 ca         1 4A7       0.228100
     18 OAP          0.4940     6.5190     0.6680 os         1 4A7      -0.323900
     19 CAA          1.1900     7.3320    -0.2790 c3         1 4A7       0.126700
     20 CAH          0.5450     4.8020    -0.9780 ca         1 4A7      -0.278000
     21 CAJ          0.2300     3.5150    -1.3690 ca         1 4A7       0.044000
     22 CAX         -0.4370     2.6710    -0.5020 ca         1 4A7      -0.374500
     23 SAZ         -0.8300     1.0260    -1.0000 sy         1 4A7       1.440200
     24 OAE         -0.2740     0.8570    -2.2980 o          1 4A7      -0.636300
     25 OAF         -2.2080     0.8390    -0.7150 o          1 4A7      -0.636300
     26 H1          -0.5000    -0.6430     0.5810 hn         1 4A7       0.464800
     27 H2           1.5530    -0.0570     2.1400 ha         1 4A7       0.138000
     28 H3           3.6190    -0.4490     3.2760 hc         1 4A7       0.058700
     29 H4           4.4760     1.0200     2.7770 hc         1 4A7       0.058700
     30 H5           5.2770    -1.8590     2.2670 hc         1 4A7       0.078200
     31 H6           6.1550    -0.6410     3.2070 hc         1 4A7       0.078200
     32 H7           5.8510     1.3000    -1.6130 h1         1 4A7       0.052367
     33 H8           7.3330     0.5980    -0.9500 h1         1 4A7       0.052367
     34 H9           6.2510    -0.3920    -1.9380 h1         1 4A7       0.052367
     35 H10          4.0150    -0.0020    -2.1420 ha         1 4A7       0.143000
     36 H11          1.5520    -0.0770    -2.1400 ha         1 4A7       0.183000
     37 H12         -2.3860     3.6120     2.8940 h1         1 4A7       0.048367
     38 H13         -2.1270     1.9890     3.5480 h1         1 4A7       0.048367
     39 H14         -0.7590     3.0950     3.3600 h1         1 4A7       0.048367
     40 H15         -0.8220     4.7790     2.1160 ha         1 4A7       0.153000
     41 H16          0.5900     7.4390    -1.1740 h1         1 4A7       0.046700
     42 H17          2.1350     6.8650    -0.5310 h1         1 4A7       0.046700
     43 H18          1.3740     8.3100     0.1510 h1         1 4A7       0.046700
     44 H19          1.0700     5.4610    -1.6590 ha         1 4A7       0.142000
     45 H20          0.5140     3.1640    -2.3540 ha         1 4A7       0.161000
     46 OAQ         -1.4650     2.2890     1.6100 os         1 4A7      -0.323900
@<TRIPOS>BOND
     1     8     7 2   
     2    10     9 1   
     3     7     9 1   
     4     7     6 1   
     5     9    11 1   
     6     6     5 1   
     7    11    12 ar  
     8    11     4 ar  
     9    12    13 ar  
    10     5     4 1   
    11     4     3 ar  
    12    13     2 ar  
    13     3     2 ar  
    14     2     1 1   
    15    14    46 1   
    16    18    17 1   
    17    18    19 1   
    18    16    17 ar  
    19    16    15 ar  
    20    46    15 1   
    21    17    20 ar  
    22    15    22 ar  
    23     1    23 1   
    24    20    21 ar  
    25    22    21 ar  
    26    22    23 1   
    27    25    23 2   
    28    23    24 2   
    29     1    26 1   
    30     3    27 1   
    31     5    28 1   
    32     5    29 1   
    33     6    30 1   
    34     6    31 1   
    35    10    32 1   
    36    10    33 1   
    37    10    34 1   
    38    12    35 1   
    39    13    36 1   
    40    14    37 1   
    41    14    38 1   
    42    14    39 1   
    43    16    40 1   
    44    19    41 1   
    45    19    42 1   
    46    19    43 1   
    47    20    44 1   
    48    21    45 1   
@<TRIPOS>SUBSTRUCTURE
     1 4A7         1 TEMP              0 ****  ****    0 ROOT
