@<TRIPOS>MOLECULE
molecule
   41    43     1     0     0
SMALL
bcc


@<TRIPOS>ATOM
      1 CAA          0.0000     0.0000     0.0000 c3         1 4A8       0.125700
      2 OAO          1.4290     0.0000     0.0000 os         1 4A8      -0.323900
      3 CAQ          2.0470     0.0000     1.2100 ca         1 4A8       0.194100
      4 CAH          3.4320     0.0010     1.2830 ca         1 4A8      -0.215500
      5 CAK          4.0570     0.0030     2.5150 ca         1 4A8       0.011500
      6 CAG          1.2930     0.0060     2.3740 ca         1 4A8      -0.215500
      7 CAJ          1.9220     0.0130     3.6040 ca         1 4A8       0.011500
      8 CAR          3.3040     0.0020     3.6740 ca         1 4A8      -0.353500
      9 SAX          4.1050     0.0100     5.2440 sy         1 4A8       1.427200
     10 OAE          5.3540     0.6590     5.0530 o          1 4A8      -0.635800
     11 OAF          3.1360     0.4500     6.1860 o          1 4A8      -0.635800
     12 NAN          4.4480    -1.5640     5.6270 nu         1 4A8      -0.780500
     13 CAP          3.4070    -2.4790     5.8210 ca         1 4A8       0.119600
     14 CAM          3.1250    -3.4240     4.8450 ca         1 4A8      -0.124000
     15 CAU          2.0940    -4.3290     5.0410 ca         1 4A8      -0.001400
     16 NAW          1.5770    -5.3690     4.2710 n          1 4A8      -0.360000
     17 CAC          2.0600    -5.7780     2.9510 c3         1 4A8       0.116300
     18 CAS          0.5600    -5.9350     4.9490 c          1 4A8       0.802500
     19 OAD         -0.1060    -6.8730     4.5550 o          1 4A8      -0.661500
     20 NAV          0.3950    -5.3050     6.1270 n          1 4A8      -0.361000
     21 CAB         -0.6110    -5.6340     7.1410 c3         1 4A8       0.116300
     22 CAT          1.3450    -4.2870     6.2190 ca         1 4A8       0.003600
     23 CAL          1.6320    -3.3420     7.1900 ca         1 4A8      -0.122000
     24 CAI          2.6630    -2.4440     6.9950 ca         1 4A8      -0.109000
     25 H1          -0.3610     0.8870     0.5070 h1         1 4A8       0.046033
     26 H2          -0.3610    -0.0040    -1.0210 h1         1 4A8       0.046033
     27 H3          -0.3610    -0.8830     0.5140 h1         1 4A8       0.046033
     28 H4           4.0230     0.0020     0.3750 ha         1 4A8       0.146000
     29 H5           5.1390    -0.0010     2.5730 ha         1 4A8       0.153000
     30 H6           0.2110     0.0140     2.3190 ha         1 4A8       0.146000
     31 H7           1.3340     0.0150     4.5130 ha         1 4A8       0.153000
     32 H8           5.3980    -1.8520     5.7530 hn         1 4A8       0.462800
     33 H9           3.7640    -3.5110     3.9750 ha         1 4A8       0.143000
     34 H10          3.0870    -6.1130     3.0290 h1         1 4A8       0.053367
     35 H11          1.4440    -6.5860     2.5750 h1         1 4A8       0.053367
     36 H12          2.0050    -4.9360     2.2700 h1         1 4A8       0.053367
     37 H13         -1.2120    -6.4670     6.7960 h1         1 4A8       0.054033
     38 H14         -1.2480    -4.7750     7.3100 h1         1 4A8       0.054033
     39 H15         -0.1160    -5.9040     8.0660 h1         1 4A8       0.054033
     40 H16          1.0540    -3.3120     8.1060 ha         1 4A8       0.142000
     41 H17          2.9020    -1.7210     7.7650 ha         1 4A8       0.160000
@<TRIPOS>BOND
     1    11     9 2
     2    10     9 2
     3     9     8 1
     4     9    12 1
     5     8     7 ar
     6     8     5 ar
     7     7     6 ar
     8    24    23 ar
     9    24    13 ar
    10     6     3 ar
    11     5     4 ar
    12    12    13 1
    13    23    22 ar
    14     3     4 ar
    15     3     2 1
    16    13    14 ar
    17     2     1 1
    18    22    20 1
    19    22    15 ar
    20    14    15 ar
    21    21    20 1
    22    20    18 1
    23    15    16 1
    24    16    18 1
    25    16    17 1
    26    18    19 2
    27     1    25 1
    28     1    26 1
    29     1    27 1
    30     4    28 1
    31     5    29 1
    32     6    30 1
    33     7    31 1
    34    12    32 1
    35    14    33 1
    36    17    34 1
    37    17    35 1
    38    17    36 1
    39    21    37 1
    40    21    38 1
    41    21    39 1
    42    23    40 1
    43    24    41 1
@<TRIPOS>SUBSTRUCTURE
     1 4A8         1 TEMP              0 ****  ****    0 ROOT
