@<TRIPOS>MOLECULE
4A8
   41    43     1     0     0
SMALL
bcc


@<TRIPOS>ATOM
      1 CAA          0.0000     0.0000     0.0000 c3         1 4A8       0.244700
      2 OAO          1.4290     0.0000     0.0000 os         1 4A8      -0.305900
      3 CAQ          2.0470     0.0000     1.2100 ca         1 4A8       0.203100
      4 CAH          3.4320     0.0010     1.2830 ca         1 4A8      -0.211500
      5 CAK          4.0570     0.0030     2.5150 ca         1 4A8       0.050500
      6 CAG          1.2930     0.0060     2.3740 ca         1 4A8      -0.211500
      7 CAJ          1.9220     0.0130     3.6040 ca         1 4A8       0.050500
      8 CAR          3.3040     0.0020     3.6740 ca         1 4A8      -0.204500
      9 SAX          4.1050     0.0100     5.2440 sy         1 4A8       1.042200
     10 OAE          5.3540     0.6590     5.0530 o          1 4A8      -0.586800
     11 OAF          3.1360     0.4500     6.1860 o          1 4A8      -0.586800
     12 NAN          4.4480    -1.5640     5.6270 nu         1 4A8      -0.417500
     13 CAP          3.4070    -2.4790     5.8210 ca         1 4A8       0.046600
     14 CAM          3.1250    -3.4240     4.8450 ca         1 4A8      -0.097000
     15 CAU          2.0940    -4.3290     5.0410 ca         1 4A8      -0.144400
     16 NAW          1.5770    -5.3690     4.2710 n          1 4A8       0.044000
     17 CAC          2.0600    -5.7780     2.9510 c3         1 4A8       0.086300
     18 CAS          0.5600    -5.9350     4.9490 c          1 4A8       0.583500
     19 OAD         -0.1060    -6.8730     4.5550 o          1 4A8      -0.719500
     20 NAV          0.3950    -5.3050     6.1270 n          1 4A8       0.045000
     21 CAB         -0.6110    -5.6340     7.1410 c3         1 4A8       0.086300
     22 CAT          1.3450    -4.2870     6.2190 ca         1 4A8      -0.147400
     23 CAL          1.6320    -3.3420     7.1900 ca         1 4A8      -0.078000
     24 CAI          2.6630    -2.4440     6.9950 ca         1 4A8      -0.085000
     25 H1          -0.3610     0.8870     0.5070 h1         1 4A8       0.000367
     26 H2          -0.3610    -0.0040    -1.0210 h1         1 4A8       0.000367
     27 H3          -0.3610    -0.8830     0.5140 h1         1 4A8       0.000367
     28 H4           4.0230     0.0020     0.3750 ha         1 4A8       0.125000
     29 H5           5.1390    -0.0010     2.5730 ha         1 4A8       0.122000
     30 H6           0.2110     0.0140     2.3190 ha         1 4A8       0.125000
     31 H7           1.3340     0.0150     4.5130 ha         1 4A8       0.122000
     32 H8           5.3980    -1.8520     5.7530 hn         1 4A8       0.346800
     33 H9           3.7640    -3.5110     3.9750 ha         1 4A8       0.113000
     34 H10          3.0870    -6.1130     3.0290 h1         1 4A8       0.019367
     35 H11          1.4440    -6.5860     2.5750 h1         1 4A8       0.019367
     36 H12          2.0050    -4.9360     2.2700 h1         1 4A8       0.019367
     37 H13         -1.2120    -6.4670     6.7960 h1         1 4A8       0.020033
     38 H14         -1.2480    -4.7750     7.3100 h1         1 4A8       0.020033
     39 H15         -0.1160    -5.9040     8.0660 h1         1 4A8       0.020033
     40 H16          1.0540    -3.3120     8.1060 ha         1 4A8       0.110000
     41 H17          2.9020    -1.7210     7.7650 ha         1 4A8       0.131000
@<TRIPOS>BOND
     1     1     2 1   
     2     1    25 1   
     3     1    26 1   
     4     1    27 1   
     5     2     3 1   
     6     3     4 ar  
     7     3     6 ar  
     8     4     5 ar  
     9     4    28 1   
    10     5     8 ar  
    11     5    29 1   
    12     6     7 ar  
    13     6    30 1   
    14     7     8 ar  
    15     7    31 1   
    16     8     9 1   
    17     9    10 2   
    18     9    11 2   
    19     9    12 1   
    20    12    13 1   
    21    12    32 1   
    22    13    14 ar  
    23    13    24 ar  
    24    14    15 ar  
    25    14    33 1   
    26    15    16 1   
    27    15    22 ar  
    28    16    17 1   
    29    16    18 1   
    30    17    34 1   
    31    17    35 1   
    32    17    36 1   
    33    18    19 2   
    34    18    20 1   
    35    20    21 1   
    36    20    22 1   
    37    21    37 1   
    38    21    38 1   
    39    21    39 1   
    40    22    23 ar  
    41    23    24 ar  
    42    23    40 1   
    43    24    41 1   
@<TRIPOS>SUBSTRUCTURE
     1 4A8         1 TEMP              0 ****  ****    0 ROOT
