@<TRIPOS>MOLECULE
molecule
   73    77     1     0     0
SMALL
bcc


@<TRIPOS>ATOM
      1 O2           0.0000     0.0000     0.0000 o          1 4A9      -0.594100
      2 C7           1.2160     0.0000     0.0000 c          1 4A9       0.677700
      3 C8           1.9550     0.0000     1.2800 ca         1 4A9      -0.152600
      4 C14          3.3510    -0.0060     1.2830 ca         1 4A9      -0.079000
      5 C13          4.0350    -0.0060     2.4800 ca         1 4A9      -0.140000
      6 C12          3.3410     0.0000     3.6780 ca         1 4A9      -0.060000
      7 C10          1.9570     0.0050     3.6820 ca         1 4A9      -0.190300
      8 C11          1.2100     0.0120     4.9900 c3         1 4A9       0.676200
      9 F3           0.4100     1.1570     5.0640 f          1 4A9      -0.220967
     10 F2           0.4010    -1.1270     5.0700 f          1 4A9      -0.220967
     11 F1           2.1230     0.0110     6.0500 f          1 4A9      -0.220967
     12 C9           1.2610     0.0110     2.4900 ca         1 4A9      -0.019000
     13 N2           1.8890    -0.0060    -1.1680 ns         1 4A9      -0.471100
     14 C6           1.1940    -0.1250    -2.3750 ca         1 4A9       0.065600
     15 C5           1.7490    -0.8380    -3.4310 ca         1 4A9      -0.176000
     16 C4           1.0630    -0.9560    -4.6230 ca         1 4A9      -0.096000
     17 C3          -0.1770    -0.3650    -4.7720 ca         1 4A9      -0.142000
     18 C15         -0.0530     0.4660    -2.5190 ca         1 4A9      -0.162000
     19 C2          -0.7370     0.3500    -3.7210 ca         1 4A9       0.074600
     20 N1          -1.9950     0.9440    -3.8710 ns         1 4A9      -0.471100
     21 C1          -2.3970     1.3750    -5.0830 c          1 4A9       0.720700
     22 O1          -1.6330     1.3300    -6.0290 o          1 4A9      -0.594100
     23 C16         -3.7510     1.8970    -5.2610 cc         1 4A9      -0.264000
     24 C17         -4.2890     2.3600    -6.4300 cc         1 4A9       0.485200
     25 N3          -5.5260     2.7720    -6.3210 nc         1 4A9      -0.695000
     26 C18         -6.0790     2.6950    -5.1450 cd         1 4A9       0.725300
     27 S           -4.9840     2.0350    -4.0100 ss         1 4A9      -0.234300
     28 N4          -7.3710     3.0860    -4.8550 nu         1 4A9      -0.837600
     29 C19         -8.2150     3.5020    -5.8760 ca         1 4A9       0.721200
     30 C29         -9.4810     4.0010    -5.5850 ca         1 4A9      -0.455600
     31 C22        -10.2890     4.4060    -6.6450 ca         1 4A9       0.680200
     32 N6          -9.8250     4.3010    -7.8880 nb         1 4A9      -0.811000
     33 C20         -8.6200     3.8220    -8.1220 ca         1 4A9       0.742300
     34 C21         -8.1360     3.7220    -9.5460 c3         1 4A9      -0.121400
     35 N5          -7.8240     3.4340    -7.1470 nb         1 4A9      -0.755000
     36 N7         -11.5590     4.9100    -6.4080 nh         1 4A9      -0.701300
     37 C28        -11.5070     6.0600    -5.4950 c3         1 4A9       0.173800
     38 C27        -12.9310     6.5360    -5.1960 c3         1 4A9       0.158300
     39 N8         -13.5970     6.8960    -6.4560 n3         1 4A9      -0.717600
     40 C24        -13.6490     5.7460    -7.3690 c3         1 4A9       0.158300
     41 C23        -12.2260     5.2700    -7.6670 c3         1 4A9       0.173800
     42 C25        -14.9430     7.4300    -6.2050 c3         1 4A9       0.161800
     43 C26        -14.8330     8.8650    -5.6810 c3         1 4A9       0.144400
     44 O3         -14.2630     9.6980    -6.6920 oh         1 4A9      -0.591800
     45 H10          3.8960    -0.0110     0.3470 ha         1 4A9       0.132000
     46 H9           5.1190    -0.0110     2.4830 ha         1 4A9       0.144000
     47 H8           3.8840    -0.0000     4.6150 ha         1 4A9       0.154000
     48 H7           0.1780     0.0150     2.4940 ha         1 4A9       0.171000
     49 H6           2.8820     0.1210    -1.1730 hn         1 4A9       0.326500
     50 H5           2.7210    -1.3030    -3.3180 ha         1 4A9       0.128000
     51 H4           1.4980    -1.5130    -5.4440 ha         1 4A9       0.137000
     52 H3          -0.7120    -0.4570    -5.7090 ha         1 4A9       0.167000
     53 H11         -0.4880     1.0230    -1.6990 ha         1 4A9       0.164000
     54 H2          -2.6010     1.0380    -3.0800 hn         1 4A9       0.328500
     55 H12         -3.7410     2.3830    -7.3640 h4         1 4A9       0.069100
     56 H13         -7.7110     3.0320    -3.9150 hn         1 4A9       0.472800
     57 H30         -9.8280     4.0730    -4.5620 ha         1 4A9       0.144000
     58 H15         -8.9630     3.9010   -10.2220 hc         1 4A9       0.061700
     59 H16         -7.7340     2.7310    -9.7210 hc         1 4A9       0.061700
     60 H14         -7.3620     4.4610    -9.7170 hc         1 4A9       0.061700
     61 H29        -10.9480     6.8630    -5.9590 h1         1 4A9       0.059200
     62 H28        -11.0250     5.7640    -4.5710 h1         1 4A9       0.059200
     63 H27        -12.8920     7.4040    -4.5490 h1         1 4A9       0.042700
     64 H26        -13.4830     5.7400    -4.7110 h1         1 4A9       0.042700
     65 H19        -14.1310     6.0420    -8.2930 h1         1 4A9       0.042700
     66 H20        -14.2080     4.9430    -6.9050 h1         1 4A9       0.042700
     67 H18        -11.6740     6.0660    -8.1520 h1         1 4A9       0.059200
     68 H17        -12.2650     4.4030    -8.3150 h1         1 4A9       0.059200
     69 H22        -15.4450     6.8140    -5.4690 h1         1 4A9       0.042700
     70 H21        -15.5110     7.4250    -7.1280 h1         1 4A9       0.042700
     71 H23        -15.8190     9.2320    -5.4240 h1         1 4A9       0.020700
     72 H24        -14.2010     8.8800    -4.8010 h1         1 4A9       0.020700
     73 H25        -14.4860    10.5980    -6.5210 ho         1 4A9       0.395000
@<TRIPOS>BOND
     1     9     8 1
     2    10     8 1
     3     8    11 1
     4     8     7 1
     5     7     6 ar
     6     7    12 ar
     7     6     5 ar
     8    12     3 ar
     9     5     4 ar
    10     3     4 ar
    11     3     2 1
    12     2    13 1
    13     2     1 2
    14    13    14 1
    15    14    18 ar
    16    14    15 ar
    17    18    19 ar
    18    15    16 ar
    19    19    20 1
    20    19    17 ar
    21    24    25 1
    22    24    23 2
    23    20    21 1
    24    16    17 ar
    25    25    26 2
    26    21    23 1
    27    21    22 2
    28    23    27 1
    29    26    28 1
    30    26    27 1
    31    28    29 1
    32    29    30 ar
    33    29    35 ar
    34    30    31 ar
    35    35    33 ar
    36    37    36 1
    37    37    38 1
    38    31    36 1
    39    31    32 ar
    40    33    32 ar
    41    33    34 1
    42    36    41 1
    43    38    39 1
    44    41    40 1
    45    39    40 1
    46    39    42 1
    47    42    43 1
    48    43    44 1
    49     4    45 1
    50     5    46 1
    51     6    47 1
    52    12    48 1
    53    13    49 1
    54    15    50 1
    55    16    51 1
    56    17    52 1
    57    18    53 1
    58    20    54 1
    59    24    55 1
    60    28    56 1
    61    30    57 1
    62    34    58 1
    63    34    59 1
    64    34    60 1
    65    37    61 1
    66    37    62 1
    67    38    63 1
    68    38    64 1
    69    40    65 1
    70    40    66 1
    71    41    67 1
    72    41    68 1
    73    42    69 1
    74    42    70 1
    75    43    71 1
    76    43    72 1
    77    44    73 1
@<TRIPOS>SUBSTRUCTURE
     1 4A9         1 TEMP              0 ****  ****    0 ROOT
