@<TRIPOS>MOLECULE
molecule
   17    17     1     0     0
SMALL
bcc


@<TRIPOS>ATOM
      1 OAB          0.0000     0.0000     0.0000 o          1 4AA      -0.833800
      2 CAH          1.3480     0.0000     0.0000 c          1 4AA       0.885200
      3 OAC          1.9540     0.0000     1.0520 o          1 4AA      -0.833800
      4 CAL          2.0840     0.0020    -1.2750 ca         1 4AA      -0.121600
      5 CAG          1.3940     0.1270    -2.4860 ca         1 4AA      -0.085000
      6 CAF          2.0840     0.1270    -3.6750 ca         1 4AA      -0.163000
      7 CAJ          3.4670     0.0120    -3.6830 ca         1 4AA      -0.013600
      8 ClAE         4.3250     0.0140    -5.1930 cl         1 4AA      -0.161400
      9 CAK          4.1660    -0.1070    -2.4950 ca         1 4AA       0.048100
     10 OAD          5.5210    -0.2220    -2.5120 oh         1 4AA      -0.518100
     11 CAI          3.4810    -0.1100    -1.2830 ca         1 4AA       0.189600
     12 NAA          4.1790    -0.2290    -0.0860 nv         1 4AA      -0.936200
     13 HAG          0.3140     0.2180    -2.4870 ha         1 4AA       0.161000
     14 HAF          1.5460     0.2250    -4.6100 ha         1 4AA       0.121000
     15 HAD          5.7610    -1.0760    -2.8300 ho         1 4AA       0.404000
     16 HAA1         4.7530     0.5260     0.2350 hn         1 4AA       0.428300
     17 HAA2         4.0560    -1.0400     0.4860 hn         1 4AA       0.428300
@<TRIPOS>BOND
     1     1     2 1   
     2     2     3 1   
     3     2     4 1   
     4     4     5 ar  
     5     4    11 ar  
     6     5     6 ar  
     7     5    13 1   
     8     6     7 ar  
     9     6    14 1   
    10     7     8 1   
    11     7     9 ar  
    12     9    10 1   
    13     9    11 ar  
    14    10    15 1   
    15    11    12 1   
    16    12    16 1   
    17    12    17 1   
@<TRIPOS>SUBSTRUCTURE
     1 4AA         1 TEMP              0 ****  ****    0 ROOT
