@<TRIPOS>MOLECULE
4AB
   33    34     1     0     0
SMALL
bcc


@<TRIPOS>ATOM
      1 N1           0.0000     0.0000     0.0000 nb         1 4AB      -0.641000
      2 C2           1.3240     0.0000     0.0000 ca         1 4AB       0.710900
      3 N2           2.0010    -0.0010    -1.2100 nv         1 4AB      -0.636500
      4 N3           2.0170     0.0000     1.1270 nb         1 4AB      -0.645000
      5 C4           1.4050     0.0050     2.3080 ca         1 4AB       0.507200
      6 NH4          2.1450     0.0050     3.4850 nv         1 4AB      -0.643500
      7 C4A          0.0060     0.0090     2.3510 ca         1 4AB      -0.278000
      8 C8A         -0.6790     0.0010     1.1440 ca         1 4AB       0.498200
      9 N5          -0.6360     0.0320     3.5950 nu         1 4AB      -0.367600
     10 N8          -2.0730    -0.0060     1.1220 nu         1 4AB      -0.497900
     11 C6          -1.9690    -0.5550     3.4720 c3         1 4AB       0.068500
     12 C7          -2.7660     0.2060     2.4050 c3         1 4AB       0.142800
     13 C9          -2.6950    -0.4610     4.8140 c3         1 4AB       0.195100
     14 O9          -2.9210     0.9130     5.1380 oh         1 4AB      -0.576800
     15 C10         -4.0370    -1.1890     4.7220 c3         1 4AB       0.167100
     16 C11         -4.7100    -1.1980     6.0960 c3         1 4AB      -0.029100
     17 O10         -3.8200    -2.5330     4.2900 oh         1 4AB      -0.591800
     18 H22          2.2390     0.8660    -1.6510 hn         1 4AB       0.276300
     19 H21          2.2510    -0.8680    -1.6430 hn         1 4AB       0.276300
     20 HH41         2.3350     0.8680     3.9550 hn         1 4AB       0.276800
     21 HH42         2.5230    -0.8510     3.8380 hn         1 4AB       0.276800
     22 H5          -0.0990    -0.4940     4.2570 hn         1 4AB       0.261800
     23 H8          -2.3990     0.6620     0.4520 hn         1 4AB       0.271800
     24 H6          -1.8780    -1.5940     3.1780 h1         1 4AB       0.052700
     25 H71         -2.7860     1.2620     2.6430 h1         1 4AB       0.034200
     26 H72         -3.7740    -0.1860     2.3480 h1         1 4AB       0.034200
     27 H9          -2.0890    -0.9180     5.5860 h1         1 4AB       0.010700
     28 H9O1        -2.4260     1.1400     5.9070 ho         1 4AB       0.396000
     29 H10         -4.6770    -0.6800     4.0110 h1         1 4AB       0.017700
     30 H113        -5.3210    -0.3100     6.2050 hc         1 4AB       0.010700
     31 H112        -5.3330    -2.0790     6.1870 hc         1 4AB       0.010700
     32 H111        -3.9510    -1.2110     6.8700 hc         1 4AB       0.010700
     33 H1O1        -4.6490    -2.9360     4.0890 ho         1 4AB       0.398000
@<TRIPOS>BOND
     1     1     2 ar  
     2     1     8 ar  
     3     2     3 1   
     4     2     4 ar  
     5     3    18 1   
     6     3    19 1   
     7     4     5 ar  
     8     5     6 1   
     9     5     7 ar  
    10     6    20 1   
    11     6    21 1   
    12     7     8 ar  
    13     7     9 1   
    14     8    10 1   
    15     9    11 1   
    16     9    22 1   
    17    10    12 1   
    18    10    23 1   
    19    11    12 1   
    20    11    13 1   
    21    11    24 1   
    22    12    25 1   
    23    12    26 1   
    24    13    14 1   
    25    13    15 1   
    26    13    27 1   
    27    14    28 1   
    28    15    16 1   
    29    15    17 1   
    30    15    29 1   
    31    16    30 1   
    32    16    31 1   
    33    16    32 1   
    34    17    33 1   
@<TRIPOS>SUBSTRUCTURE
     1 4AB         1 TEMP              0 ****  ****    0 ROOT
