@<TRIPOS>MOLECULE
molecule
   52    54     1     0     0
SMALL
bcc


@<TRIPOS>ATOM
      1 O2P          0.0000     0.0000     0.0000 o          1 4AD      -0.736000
      2 P            1.4800     0.0000     0.0000 p5         1 4AD       1.220800
      3 O1P          2.0160     0.0000     1.5180 o          1 4AD      -0.736000
      4 O3P          2.0170     1.3140    -0.7590 os         1 4AD      -0.484500
      5 C            1.6120     2.5310    -0.3630 c          1 4AD       0.676100
      6 O            0.8440     2.6400     0.5630 o          1 4AD      -0.447000
      7 CA           2.1150     3.7610    -1.0740 c3         1 4AD       0.043500
      8 N            1.2090     4.8850    -0.8080 nz         1 4AD      -0.808600
      9 CB           3.5180     4.1040    -0.5700 c3         1 4AD      -0.181400
     10 CG           4.0690     5.2580    -1.3660 c          1 4AD       0.488100
     11 OD1          3.4060     5.7560    -2.2510 o          1 4AD      -0.428100
     12 ND2          5.3000     5.7360    -1.0950 nz         1 4AD      -0.685400
     13 O5'          2.0150    -1.3160    -0.7570 os         1 4AD      -0.530200
     14 C5'          1.4130    -2.4390    -0.1120 c3         1 4AD       0.153400
     15 C4'          1.8840    -3.7290    -0.7880 c3         1 4AD       0.124100
     16 C3'          1.1510    -4.9390    -0.1770 c3         1 4AD       0.088100
     17 O3'          0.4020    -5.6350    -1.1750 oh         1 4AD      -0.572800
     18 C2'          2.2930    -5.8350     0.3700 c3         1 4AD       0.094100
     19 O2'          2.0280    -7.2130     0.1050 oh         1 4AD      -0.558800
     20 C1'          3.5130    -5.3380    -0.4480 c3         1 4AD       0.257800
     21 O4'          3.2900    -3.9160    -0.5570 os         1 4AD      -0.408600
     22 N9           4.7620    -5.6110     0.2680 na         1 4AD      -0.252000
     23 C4           5.5150    -6.7560     0.1810 ca         1 4AD       0.480800
     24 N3           5.4180    -7.8920    -0.5020 nb         1 4AD      -0.781000
     25 C2           6.3320    -8.8310    -0.3740 ca         1 4AD       0.738900
     26 N1           7.3790    -8.6980     0.4190 nb         1 4AD      -0.834000
     27 C6           7.5620    -7.5940     1.1370 ca         1 4AD       0.785200
     28 N6           8.6630    -7.4630     1.9660 nv         1 4AD      -0.987500
     29 C5           6.6130    -6.5630     1.0340 ca         1 4AD      -0.213200
     30 N7           6.4740    -5.3370     1.5940 nc         1 4AD      -0.597100
     31 C8           5.3880    -4.7770     1.1460 cd         1 4AD       0.427700
     32 HA           2.1510     3.5720    -2.1400 hx         1 4AD       0.152700
     33 HN1          1.1170     5.4420    -1.6340 hn         1 4AD       0.469800
     34 HN2          1.5820     5.4460    -0.0670 hn         1 4AD       0.469800
     35 HN3          0.3110     4.5340    -0.5400 hn         1 4AD       0.469800
     36 HB1          4.1640     3.2430    -0.6860 hc         1 4AD       0.148200
     37 HB2          3.4680     4.3790     0.4770 hc         1 4AD       0.148200
     38 HD21         5.2810     6.2330    -0.2270 hn         1 4AD       0.495800
     39 HD22         5.9470     4.9750    -1.0300 hn         1 4AD       0.495800
     40 H5'1         0.3350    -2.3650    -0.1880 h1         1 4AD       0.070200
     41 H5'2         1.7020    -2.4530     0.9320 h1         1 4AD       0.070200
     42 H4'          1.6920    -3.6830    -1.8530 h1         1 4AD       0.082700
     43 H3'          0.5060    -4.6170     0.6320 h1         1 4AD       0.054700
     44 H2          -0.5130    -5.6200    -0.9500 ho         1 4AD       0.407000
     45 H2'          2.4450    -5.6600     1.4280 h1         1 4AD       0.061700
     46 H1           1.6920    -7.6240     0.8850 ho         1 4AD       0.407000
     47 H1'          3.5220    -5.7960    -1.4300 h2         1 4AD       0.113700
     48 H3           6.2210    -9.7480    -0.9410 h5         1 4AD       0.063100
     49 HN61         9.3940    -8.1470     1.9390 hn         1 4AD       0.448800
     50 HN62         8.7070    -6.7110     2.6250 hn         1 4AD       0.448800
     51 H8           5.0340    -3.7930     1.4280 h5         1 4AD       0.089800
     52 HD23         5.5890     6.3490    -1.8320 hn         1 4AD       0.495800
@<TRIPOS>BOND
     1     1     2 1   
     2     2     3 1   
     3     2     4 1   
     4     2    13 1   
     5     4     5 1   
     6     5     6 2   
     7     5     7 1   
     8     7     8 1   
     9     7     9 1   
    10     7    32 1   
    11     8    33 1   
    12     8    34 1   
    13     8    35 1   
    14     9    10 1   
    15     9    36 1   
    16     9    37 1   
    17    10    11 2   
    18    10    12 1   
    19    12    38 1   
    20    12    39 1   
    21    13    14 1   
    22    14    15 1   
    23    14    40 1   
    24    14    41 1   
    25    15    16 1   
    26    15    21 1   
    27    15    42 1   
    28    16    17 1   
    29    16    18 1   
    30    16    43 1   
    31    17    44 1   
    32    18    19 1   
    33    18    20 1   
    34    18    45 1   
    35    19    46 1   
    36    20    21 1   
    37    20    22 1   
    38    20    47 1   
    39    22    23 1   
    40    22    31 1   
    41    23    24 ar  
    42    23    29 ar  
    43    24    25 ar  
    44    25    26 ar  
    45    25    48 1   
    46    26    27 ar  
    47    27    28 1   
    48    27    29 ar  
    49    28    49 1   
    50    28    50 1   
    51    29    30 1   
    52    30    31 2   
    53    31    51 1   
    54    52    12 1   
@<TRIPOS>SUBSTRUCTURE
     1 4AD         1 TEMP              0 ****  ****    0 ROOT
