@<TRIPOS>MOLECULE
molecule
   52    55     1     0     0
SMALL
bcc


@<TRIPOS>ATOM
      1 CAA          0.0000     0.0000     0.0000 c3         1 4AE       0.127700
      2 OAS          1.4280     0.0000     0.0000 os         1 4AE      -0.325900
      3 CAU          2.0460     0.0000     1.2110 ca         1 4AE       0.141100
      4 CAK          1.2910    -0.0070     2.3750 ca         1 4AE      -0.181000
      5 CAM          1.9170    -0.0080     3.6050 ca         1 4AE      -0.102000
      6 CAJ          3.4310    -0.0000     1.2840 ca         1 4AE      -0.181000
      7 CAL          4.0580    -0.0020     2.5150 ca         1 4AE      -0.102000
      8 CAV          3.3030    -0.0020     3.6780 ca         1 4AE       0.056100
      9 OAT          3.9200    -0.0020     4.8890 os         1 4AE      -0.240200
     10 CAX          4.6140     1.1090     5.2530 ca         1 4AE       0.118100
     11 CAQ          4.5700     2.2420     4.4590 ca         1 4AE      -0.192000
     12 CBB          5.2770     3.3750     4.8310 ca         1 4AE       0.017600
     13 NBD          5.4290     4.6380     4.2570 n          1 4AE      -0.359000
     14 CAC          4.8120     5.0920     3.0080 c3         1 4AE       0.117300
     15 CAZ          6.2380     5.3680     5.0470 c          1 4AE       0.801500
     16 OAD          6.5750     6.5180     4.8330 o          1 4AE      -0.662500
     17 NBC          6.6200     4.6340     6.1090 n          1 4AE      -0.357000
     18 CAB          7.5000     5.0840     7.1910 c3         1 4AE       0.118300
     19 CBA          6.0320     3.3740     6.0050 ca         1 4AE      -0.008400
     20 CAP          6.0750     2.2380     6.8010 ca         1 4AE      -0.156000
     21 CAW          5.3630     1.1080     6.4290 ca         1 4AE       0.128600
     22 NAR          5.4010    -0.0390     7.2340 nu         1 4AE      -0.755500
     23 SBE          5.4710     0.1090     8.8820 sy         1 4AE       1.428200
     24 OAE          5.3610    -1.2070     9.4070 o          1 4AE      -0.636800
     25 OAF          6.5680     0.9680     9.1610 o          1 4AE      -0.636800
     26 CAY          4.0220     0.9720     9.3910 ca         1 4AE      -0.311500
     27 CAN          4.0300     2.3520     9.4680 ca         1 4AE      -0.023500
     28 CAH          2.8920     3.0300     9.8620 ca         1 4AE      -0.151000
     29 CAG          1.7440     2.3260    10.1790 ca         1 4AE      -0.072000
     30 CAI          1.7360     0.9460    10.1020 ca         1 4AE      -0.151000
     31 CAO          2.8750     0.2690     9.7080 ca         1 4AE      -0.023500
     32 H1          -0.3610     0.0090    -1.0210 h1         1 4AE       0.043700
     33 H2          -0.3610    -0.8890     0.5030 h1         1 4AE       0.043700
     34 H3          -0.3610     0.8800     0.5190 h1         1 4AE       0.043700
     35 H4           0.2090    -0.0110     2.3180 ha         1 4AE       0.146500
     36 H5           1.3270    -0.0110     4.5140 ha         1 4AE       0.149000
     37 H6           4.0210     0.0000     0.3750 ha         1 4AE       0.146500
     38 H7           5.1400     0.0000     2.5710 ha         1 4AE       0.149000
     39 H8           3.9430     2.2600     3.5760 ha         1 4AE       0.155000
     40 H9           5.2100     4.5190     2.1800 h1         1 4AE       0.053367
     41 H10          5.0300     6.1420     2.8590 h1         1 4AE       0.053367
     42 H11          3.7390     4.9500     3.0630 h1         1 4AE       0.053367
     43 H12          6.9000     5.4310     8.0230 h1         1 4AE       0.054700
     44 H13          8.1240     4.2600     7.5140 h1         1 4AE       0.054700
     45 H14          8.1260     5.8930     6.8340 h1         1 4AE       0.054700
     46 H15          6.6570     2.2360     7.7140 ha         1 4AE       0.194000
     47 H16          5.4350    -0.9450     6.8110 hn         1 4AE       0.474800
     48 H17          4.9290     2.9020     9.2200 ha         1 4AE       0.149500
     49 H18          2.8980     4.1110     9.9220 ha         1 4AE       0.137500
     50 H19          0.8520     2.8560    10.4880 ha         1 4AE       0.134000
     51 H20          0.8370     0.3950    10.3500 ha         1 4AE       0.137500
     52 H21          2.8680    -0.8130     9.6480 ha         1 4AE       0.149500
@<TRIPOS>BOND
     1    16    15 2   
     2    14    13 1   
     3    15    13 1   
     4    15    17 1   
     5    13    12 1   
     6    17    18 1   
     7    17    19 1   
     8    12    11 ar  
     9    12    19 ar  
    10    11    10 ar  
    11    19    20 ar  
    12     1     2 1   
    13    10     9 1   
    14    10    21 ar  
    15    20    21 ar  
    16     4     5 ar  
    17     4     3 ar  
    18     5     8 ar  
    19     2     3 1   
    20     3     6 ar  
    21     8     9 1   
    22     8     7 ar  
    23    21    22 1   
    24     6     7 ar  
    25    28    29 ar  
    26    28    27 ar  
    27    29    30 ar  
    28    27    26 ar  
    29    30    31 ar  
    30    26    31 ar  
    31    26    23 1   
    32    22    23 1   
    33    25    23 2   
    34    23    24 2   
    35     1    32 1   
    36     1    33 1   
    37     1    34 1   
    38     4    35 1   
    39     5    36 1   
    40     6    37 1   
    41     7    38 1   
    42    11    39 1   
    43    14    40 1   
    44    14    41 1   
    45    14    42 1   
    46    18    43 1   
    47    18    44 1   
    48    18    45 1   
    49    20    46 1   
    50    22    47 1   
    51    27    48 1   
    52    28    49 1   
    53    29    50 1   
    54    30    51 1   
    55    31    52 1   
@<TRIPOS>SUBSTRUCTURE
     1 4AE         1 TEMP              0 ****  ****    0 ROOT
