@<TRIPOS>MOLECULE
4AG
  108   107     1     0     0
SMALL
bcc


@<TRIPOS>ATOM
      1 C01         0.0520    0.1270    0.3760 c3        1 4AG     -0.092100
      2 C02         1.5360    0.3810    0.4090 c3        1 4AG     -0.080400
      3 C03         2.1400   -0.0230    1.7370 c3        1 4AG     -0.079400
      4 C04         3.6310    0.2340    1.7660 c3        1 4AG     -0.079400
      5 C05         4.2340   -0.1710    3.0940 c3        1 4AG     -0.079400
      6 C06         5.7250    0.0880    3.1230 c3        1 4AG     -0.079400
      7 C07         6.3270   -0.3180    4.4510 c3        1 4AG     -0.079400
      8 C08         7.8180   -0.0570    4.4810 c3        1 4AG     -0.079400
      9 C09         8.4210   -0.4630    5.8090 c3        1 4AG     -0.079400
     10 C10         9.9110   -0.1990    5.8400 c3        1 4AG     -0.079400
     11 C11        10.5130   -0.6060    7.1670 c3        1 4AG     -0.079400
     12 C12        12.0020   -0.3400    7.1990 c3        1 4AG     -0.079400
     13 C13        12.6030   -0.7470    8.5270 c3        1 4AG     -0.079400
     14 C14        14.0930   -0.4810    8.5540 c3        1 4AG     -0.079400
     15 C15        14.6830   -0.8740    9.8930 c3        1 4AG     -0.127400
     16 C16        16.1730   -0.7390    9.8810 c         1 4AG      0.637100
     17 O17        16.6590   -0.2020   11.0460 os        1 4AG     -0.455900
     18 C18        18.0830   -0.0790   11.1570 c3        1 4AG      0.136400
     19 C20        17.5070    1.4170   13.1490 c3        1 4AG      0.122400
     20 O21        18.2260   -0.8890   13.3760 os        1 4AG     -0.435900
     21 C22        18.9280   -0.9950   14.5500 c         1 4AG      0.642100
     22 C23        18.5800   -2.2390   15.3060 c3        1 4AG     -0.126400
     23 C24        19.7790   -2.7720   16.0610 c3        1 4AG     -0.079400
     24 C25        19.3860   -3.9480   16.9280 c3        1 4AG     -0.078400
     25 C26        20.5830   -4.4950   17.6780 c3        1 4AG     -0.079400
     26 C27        20.1940   -5.6710   18.5470 c3        1 4AG     -0.079400
     27 C28        21.3890   -6.2160   19.3000 c3        1 4AG     -0.079400
     28 C29        21.0010   -7.3940   20.1670 c3        1 4AG     -0.079400
     29 C30        22.1950   -7.9360   20.9240 c3        1 4AG     -0.079400
     30 C31        21.8070   -9.1160   21.7890 c3        1 4AG     -0.079400
     31 C32        23.0010   -9.6560   22.5480 c3        1 4AG     -0.079400
     32 C33        22.6140  -10.8370   23.4110 c3        1 4AG     -0.079400
     33 C34        23.8060  -11.3760   24.1720 c3        1 4AG     -0.079400
     34 C35        23.4210  -12.5590   25.0340 c3        1 4AG     -0.079400
     35 C36        24.6120  -13.0970   25.7970 c3        1 4AG     -0.080400
     36 C37        24.2330  -14.2760   26.6550 c3        1 4AG     -0.092100
     37 O38        19.7220   -0.1000   14.8410 o         1 4AG     -0.543000
     38 C6         18.4040    0.3060   12.6000 c3        1 4AG      0.102100
     39 O39        16.9820   -1.0450    9.0050 o         1 4AG     -0.536000
     40 O8         16.2960    0.9320   13.6840 oh        1 4AG     -0.595800
     41 H011       -0.3730    0.4320   -0.6110 hc        1 4AG      0.032700
     42 H012       -0.1660   -0.9570    0.5340 hc        1 4AG      0.032700
     43 H013       -0.4660    0.7080    1.1770 hc        1 4AG      0.032700
     44 H021        1.7360    1.4700    0.2240 hc        1 4AG      0.038700
     45 H022        2.0350   -0.1900   -0.4170 hc        1 4AG      0.038700
     46 H031        1.6440    0.5480    2.5650 hc        1 4AG      0.039700
     47 H032        1.9430   -1.1120    1.9230 hc        1 4AG      0.039700
     48 H041        4.1280   -0.3370    0.9380 hc        1 4AG      0.039700
     49 H042        3.8290    1.3230    1.5810 hc        1 4AG      0.039700
     50 H051        3.7370    0.4000    3.9220 hc        1 4AG      0.039700
     51 H052        4.0380   -1.2600    3.2790 hc        1 4AG      0.039700
     52 H061        5.9210    1.1770    2.9380 hc        1 4AG      0.039700
     53 H062        6.2220   -0.4820    2.2950 hc        1 4AG      0.039700
     54 H071        6.1330   -1.4080    4.6350 hc        1 4AG      0.039700
     55 H072        5.8290    0.2510    5.2800 hc        1 4AG      0.039700
     56 H081        8.0130    1.0330    4.2970 hc        1 4AG      0.039700
     57 H082        8.3160   -0.6260    3.6520 hc        1 4AG      0.039700
     58 H091        7.9210    0.1040    6.6380 hc        1 4AG      0.039700
     59 H092        8.2280   -1.5540    5.9910 hc        1 4AG      0.039700
     60 H101       10.4110   -0.7660    5.0100 hc        1 4AG      0.040700
     61 H102       10.1030    0.8910    5.6580 hc        1 4AG      0.040700
     62 H111       10.0110   -0.0410    7.9970 hc        1 4AG      0.039700
     63 H112       10.3220   -1.6970    7.3480 hc        1 4AG      0.039700
     64 H121       12.5040   -0.9060    6.3700 hc        1 4AG      0.042700
     65 H122       12.1940    0.7510    7.0180 hc        1 4AG      0.042700
     66 H131       12.4110   -1.8370    8.7090 hc        1 4AG      0.041700
     67 H132       12.1030   -0.1790    9.3560 hc        1 4AG      0.041700
     68 H141       14.6020   -1.0590    7.7370 hc        1 4AG      0.057700
     69 H142       14.2870    0.6070    8.3620 hc        1 4AG      0.057700
     70 H151       14.2520   -0.2430   10.7140 hc        1 4AG      0.079700
     71 H152       14.4470   -1.9480   10.1230 hc        1 4AG      0.079700
     72 H181       18.4250    0.7290   10.4580 h1        1 4AG      0.068200
     73 H182       18.5660   -1.0530   10.8830 h1        1 4AG      0.068200
     74 H6         19.4820    0.6320   12.6470 h1        1 4AG      0.087700
     75 H201       17.2990    2.1560   12.3300 h1        1 4AG      0.056700
     76 H202       18.0150    1.9270   14.0130 h1        1 4AG      0.056700
     77 H8         15.9190    0.3160   13.0420 ho        1 4AG      0.416000
     78 H231       17.7530   -1.9720   16.0190 hc        1 4AG      0.081200
     79 H232       18.1830   -3.0130   14.5970 hc        1 4AG      0.081200
     80 H241       20.2150   -1.9540   16.6950 hc        1 4AG      0.057700
     81 H242       20.5740   -3.0850   15.3340 hc        1 4AG      0.057700
     82 H251       18.9400   -4.7560   16.2900 hc        1 4AG      0.041700
     83 H252       18.5970   -3.6310   17.6600 hc        1 4AG      0.041700
     84 H261       21.0290   -3.6860   18.3150 hc        1 4AG      0.042700
     85 H262       21.3720   -4.8120   16.9460 hc        1 4AG      0.042700
     86 H271       19.7500   -6.4810   17.9090 hc        1 4AG      0.040200
     87 H272       19.4020   -5.3550   19.2760 hc        1 4AG      0.040200
     88 H281       21.8310   -5.4070   19.9400 hc        1 4AG      0.040200
     89 H282       22.1810   -6.5300   18.5710 hc        1 4AG      0.040200
     90 H291       20.2060   -7.0800   20.8950 hc        1 4AG      0.039700
     91 H292       20.5620   -8.2040   19.5270 hc        1 4AG      0.039700
     92 H301       22.6330   -7.1270   21.5650 hc        1 4AG      0.039700
     93 H302       22.9900   -8.2480   20.1970 hc        1 4AG      0.039700
     94 H311       21.0100   -8.8050   22.5140 hc        1 4AG      0.039700
     95 H312       21.3720   -9.9260   21.1470 hc        1 4AG      0.039700
     96 H321       23.4350   -8.8460   23.1910 hc        1 4AG      0.039700
     97 H322       23.7990   -9.9650   21.8230 hc        1 4AG      0.039700
     98 H331       22.1810  -11.6480   22.7670 hc        1 4AG      0.039700
     99 H332       21.8140  -10.5280   24.1350 hc        1 4AG      0.039700
    100 H341       24.6070  -11.6830   23.4480 hc        1 4AG      0.039700
    101 H342       24.2380  -10.5660   24.8170 hc        1 4AG      0.039700
    102 H351       22.6200  -12.2520   25.7570 hc        1 4AG      0.039700
    103 H352       22.9900  -13.3700   24.3890 hc        1 4AG      0.039700
    104 H361       25.4130  -13.4010   25.0720 hc        1 4AG      0.038700
    105 H362       25.0420  -12.2850   26.4400 hc        1 4AG      0.038700
    106 H371       23.4530  -13.9860   27.4010 hc        1 4AG      0.032700
    107 H372       23.8260  -15.1060   26.0290 hc        1 4AG      0.032700
    108 H373       25.1250  -14.6570   27.2090 hc        1 4AG      0.032700
@<TRIPOS>BOND
     1    1    2 1   
     2    1   41 1   
     3    1   42 1   
     4    1   43 1   
     5    2    3 1   
     6    2   44 1   
     7    2   45 1   
     8    3    4 1   
     9    3   46 1   
    10    3   47 1   
    11    4    5 1   
    12    4   48 1   
    13    4   49 1   
    14    5    6 1   
    15    5   50 1   
    16    5   51 1   
    17    6    7 1   
    18    6   52 1   
    19    6   53 1   
    20    7    8 1   
    21    7   54 1   
    22    7   55 1   
    23    8    9 1   
    24    8   56 1   
    25    8   57 1   
    26    9   10 1   
    27    9   58 1   
    28    9   59 1   
    29   10   11 1   
    30   10   60 1   
    31   10   61 1   
    32   11   12 1   
    33   11   62 1   
    34   11   63 1   
    35   12   13 1   
    36   12   64 1   
    37   12   65 1   
    38   13   14 1   
    39   13   66 1   
    40   13   67 1   
    41   14   15 1   
    42   14   68 1   
    43   14   69 1   
    44   15   16 1   
    45   15   70 1   
    46   15   71 1   
    47   16   17 1   
    48   16   39 2   
    49   17   18 1   
    50   18   38 1   
    51   18   72 1   
    52   18   73 1   
    53   19   38 1   
    54   19   40 1   
    55   19   75 1   
    56   19   76 1   
    57   20   21 1   
    58   20   38 1   
    59   21   22 1   
    60   21   37 2   
    61   22   23 1   
    62   22   78 1   
    63   22   79 1   
    64   23   24 1   
    65   23   80 1   
    66   23   81 1   
    67   24   25 1   
    68   24   82 1   
    69   24   83 1   
    70   25   26 1   
    71   25   84 1   
    72   25   85 1   
    73   26   27 1   
    74   26   86 1   
    75   26   87 1   
    76   27   28 1   
    77   27   88 1   
    78   27   89 1   
    79   28   29 1   
    80   28   90 1   
    81   28   91 1   
    82   29   30 1   
    83   29   92 1   
    84   29   93 1   
    85   30   31 1   
    86   30   94 1   
    87   30   95 1   
    88   31   32 1   
    89   31   96 1   
    90   31   97 1   
    91   32   33 1   
    92   32   98 1   
    93   32   99 1   
    94   33   34 1   
    95   33  100 1   
    96   33  101 1   
    97   34   35 1   
    98   34  102 1   
    99   34  103 1   
   100   35   36 1   
   101   35  104 1   
   102   35  105 1   
   103   36  106 1   
   104   36  107 1   
   105   36  108 1   
   106   38   74 1   
   107   40   77 1   
@<TRIPOS>SUBSTRUCTURE
     1 4AG         1 TEMP              0 ****  ****    0 ROOT
