@<TRIPOS>MOLECULE
molecule
  108   107     1     0     0
SMALL
bcc


@<TRIPOS>ATOM
      1 C01          0.0000     0.0000     0.0000 c3         1 4AG      -0.092100
      2 C02          1.5290     0.0000     0.0000 c3         1 4AG      -0.084400
      3 C03          2.0390     0.0000     1.4430 c3         1 4AG      -0.081400
      4 C04          3.5700    -0.0000     1.4430 c3         1 4AG      -0.082400
      5 C05          4.0790     0.0000     2.8850 c3         1 4AG      -0.082400
      6 C06          5.6090    -0.0000     2.8860 c3         1 4AG      -0.082400
      7 C07          6.1190     0.0010     4.3290 c3         1 4AG      -0.082400
      8 C08          7.6490     0.0010     4.3290 c3         1 4AG      -0.082400
      9 C09          8.1590     0.0000     5.7710 c3         1 4AG      -0.082400
     10 C10          9.6880     0.0000     5.7710 c3         1 4AG      -0.081400
     11 C11         10.1980     0.0010     7.2140 c3         1 4AG      -0.082400
     12 C12         11.7280     0.0010     7.2150 c3         1 4AG      -0.080400
     13 C13         12.2370     0.0010     8.6570 c3         1 4AG      -0.083400
     14 C14         13.7680     0.0010     8.6580 c3         1 4AG      -0.073400
     15 C15         14.2780     0.0010    10.1000 c3         1 4AG      -0.124400
     16 C16         15.7850     0.0020    10.1010 c          1 4AG       0.628100
     17 O17         16.4550     0.0010    11.2640 os         1 4AG      -0.387900
     18 C18         17.9060     0.0010    11.1880 c3         1 4AG       0.155400
     19 C20         17.9210     1.1840    13.3880 c3         1 4AG       0.123400
     20 O21         18.1400    -1.2390    13.2700 os         1 4AG      -0.405900
     21 C22         19.0020    -1.6990    14.1900 c          1 4AG       0.628100
     22 C23         18.7060    -2.9810    14.9260 c3         1 4AG      -0.125400
     23 C24         19.8390    -3.2780    15.9100 c3         1 4AG      -0.072400
     24 C25         19.5380    -4.5790    16.6570 c3         1 4AG      -0.084400
     25 C26         20.6710    -4.8760    17.6410 c3         1 4AG      -0.080400
     26 C27         20.3710    -6.1770    18.3870 c3         1 4AG      -0.082400
     27 C28         21.5050    -6.4740    19.3720 c3         1 4AG      -0.081400
     28 C29         21.2030    -7.7750    20.1180 c3         1 4AG      -0.081400
     29 C30         22.3360    -8.0710    21.1030 c3         1 4AG      -0.082400
     30 C31         22.0360    -9.3730    21.8490 c3         1 4AG      -0.082400
     31 C32         23.1690    -9.6700    22.8340 c3         1 4AG      -0.082400
     32 C33         22.8680   -10.9710    23.5810 c3         1 4AG      -0.082400
     33 C34         24.0010   -11.2670    24.5640 c3         1 4AG      -0.082400
     34 C35         23.7000   -12.5690    25.3110 c3         1 4AG      -0.081400
     35 C36         24.8340   -12.8660    26.2950 c3         1 4AG      -0.084400
     36 C37         24.5330   -14.1670    27.0420 c3         1 4AG      -0.092100
     37 O38         20.0150    -1.0860    14.4290 o          1 4AG      -0.560000
     38 C6          18.4900     0.0010    12.6010 c3         1 4AG       0.150100
     39 O39         16.3890     0.0000     9.0550 o          1 4AG      -0.564000
     40 O8          16.4930     1.1290    13.3630 oh         1 4AG      -0.582800
     41 H011        -0.3610     0.8840     0.5110 hc         1 4AG       0.032367
     42 H012        -0.3610    -0.8850     0.5110 hc         1 4AG       0.032367
     43 H013        -0.3610     0.0000    -1.0210 hc         1 4AG       0.032367
     44 H021         1.8910     0.8850    -0.5110 hc         1 4AG       0.039700
     45 H022         1.8910    -0.8850    -0.5110 hc         1 4AG       0.039700
     46 H031         1.6780    -0.8850     1.9540 hc         1 4AG       0.040700
     47 H032         1.6780     0.8850     1.9540 hc         1 4AG       0.040700
     48 H041         3.9310    -0.8850     0.9330 hc         1 4AG       0.040700
     49 H042         3.9310     0.8840     0.9320 hc         1 4AG       0.040700
     50 H051         3.7180    -0.8840     3.3960 hc         1 4AG       0.040700
     51 H052         3.7180     0.8850     3.3960 hc         1 4AG       0.040700
     52 H061         5.9700    -0.8850     2.3760 hc         1 4AG       0.040700
     53 H062         5.9710     0.8840     2.3750 hc         1 4AG       0.040700
     54 H071         5.7580     0.8860     4.8390 hc         1 4AG       0.040700
     55 H072         5.7580    -0.8830     4.8400 hc         1 4AG       0.040700
     56 H081         8.0100     0.8850     3.8190 hc         1 4AG       0.041700
     57 H082         8.0100    -0.8840     3.8180 hc         1 4AG       0.041700
     58 H091         7.7980    -0.8840     6.2820 hc         1 4AG       0.040700
     59 H092         7.7980     0.8850     6.2820 hc         1 4AG       0.040700
     60 H101        10.0490    -0.8850     5.2610 hc         1 4AG       0.041700
     61 H102        10.0490     0.8840     5.2600 hc         1 4AG       0.041700
     62 H111         9.8370     0.8860     7.7240 hc         1 4AG       0.040700
     63 H112         9.8370    -0.8830     7.7260 hc         1 4AG       0.040700
     64 H121        12.0900    -0.8840     6.7050 hc         1 4AG       0.043700
     65 H122        12.0900     0.8850     6.7040 hc         1 4AG       0.043700
     66 H131        11.8760    -0.8830     9.1680 hc         1 4AG       0.040200
     67 H132        11.8760     0.8860     9.1680 hc         1 4AG       0.040200
     68 H141        14.1290     0.8860     8.1480 hc         1 4AG       0.057700
     69 H142        14.1290    -0.8830     8.1470 hc         1 4AG       0.057700
     70 H151        13.9170    -0.8840    10.6110 hc         1 4AG       0.072700
     71 H152        13.9170     0.8850    10.6110 hc         1 4AG       0.072700
     72 H181        18.2400     0.8860    10.6590 h1         1 4AG       0.059700
     73 H182        18.2400    -0.8830    10.6590 h1         1 4AG       0.059700
     74 H6          19.5690     0.0900    12.5460 h1         1 4AG       0.088700
     75 H201        18.2650     1.1350    14.4140 h1         1 4AG       0.033700
     76 H202        18.2550     2.1110    12.9390 h1         1 4AG       0.033700
     77 H8          16.1440     1.7160    14.0130 ho         1 4AG       0.395000
     78 H231        17.7740    -2.8780    15.4680 hc         1 4AG       0.073700
     79 H232        18.6220    -3.7940    14.2150 hc         1 4AG       0.073700
     80 H241        19.9220    -2.4640    16.6210 hc         1 4AG       0.058200
     81 H242        20.7710    -3.3800    15.3680 hc         1 4AG       0.058200
     82 H251        19.4550    -5.3930    15.9460 hc         1 4AG       0.041200
     83 H252        18.6060    -4.4770    17.2000 hc         1 4AG       0.041200
     84 H261        20.7540    -4.0620    18.3520 hc         1 4AG       0.043700
     85 H262        21.6030    -4.9780    17.0980 hc         1 4AG       0.043700
     86 H271        19.4390    -6.0750    18.9300 hc         1 4AG       0.041200
     87 H272        20.2880    -6.9900    17.6760 hc         1 4AG       0.041200
     88 H281        22.4370    -6.5760    18.8290 hc         1 4AG       0.041700
     89 H282        21.5880    -5.6600    20.0830 hc         1 4AG       0.041700
     90 H291        20.2710    -7.6740    20.6600 hc         1 4AG       0.040700
     91 H292        21.1210    -8.5890    19.4080 hc         1 4AG       0.040700
     92 H301        22.4180    -7.2580    21.8140 hc         1 4AG       0.041200
     93 H302        23.2680    -8.1720    20.5610 hc         1 4AG       0.041200
     94 H311        21.9540   -10.1860    21.1370 hc         1 4AG       0.040700
     95 H312        21.1030    -9.2720    22.3910 hc         1 4AG       0.040700
     96 H321        24.1010    -9.7720    22.2920 hc         1 4AG       0.041200
     97 H322        23.2510    -8.8570    23.5450 hc         1 4AG       0.041200
     98 H331        21.9360   -10.8690    24.1230 hc         1 4AG       0.040700
     99 H332        22.7850   -11.7840    22.8700 hc         1 4AG       0.040700
    100 H341        24.0840   -10.4540    25.2750 hc         1 4AG       0.040700
    101 H342        24.9330   -11.3690    24.0220 hc         1 4AG       0.040700
    102 H351        22.7680   -12.4670    25.8530 hc         1 4AG       0.040700
    103 H352        23.6170   -13.3820    24.6000 hc         1 4AG       0.040700
    104 H361        25.7660   -12.9680    25.7530 hc         1 4AG       0.039700
    105 H362        24.9170   -12.0530    27.0060 hc         1 4AG       0.039700
    106 H371        24.4500   -14.9800    26.3310 hc         1 4AG       0.032367
    107 H372        25.3360   -14.3770    27.7390 hc         1 4AG       0.032367
    108 H373        23.6010   -14.0650    27.5850 hc         1 4AG       0.032367
@<TRIPOS>BOND
     1     1     2 1
     2     2     3 1
     3     3     4 1
     4     4     5 1
     5     5     6 1
     6     6     7 1
     7     7     8 1
     8     8     9 1
     9     9    10 1
    10    10    11 1
    11    11    12 1
    12    12    13 1
    13    13    14 1
    14    14    15 1
    15    15    16 1
    16    16    17 1
    17    16    39 2
    18    17    18 1
    19    18    38 1
    20    19    38 1
    21    19    40 1
    22    20    21 1
    23    20    38 1
    24    21    22 1
    25    21    37 2
    26    22    23 1
    27    23    24 1
    28    24    25 1
    29    25    26 1
    30    26    27 1
    31    27    28 1
    32    28    29 1
    33    29    30 1
    34    30    31 1
    35    31    32 1
    36    32    33 1
    37    33    34 1
    38    34    35 1
    39    35    36 1
    40     1    41 1
    41     1    42 1
    42     1    43 1
    43     2    44 1
    44     2    45 1
    45     3    46 1
    46     3    47 1
    47     4    48 1
    48     4    49 1
    49     5    50 1
    50     5    51 1
    51     6    52 1
    52     6    53 1
    53     7    54 1
    54     7    55 1
    55     8    56 1
    56     8    57 1
    57     9    58 1
    58     9    59 1
    59    10    60 1
    60    10    61 1
    61    11    62 1
    62    11    63 1
    63    12    64 1
    64    12    65 1
    65    13    66 1
    66    13    67 1
    67    14    68 1
    68    14    69 1
    69    15    70 1
    70    15    71 1
    71    18    72 1
    72    18    73 1
    73    38    74 1
    74    19    75 1
    75    19    76 1
    76    40    77 1
    77    22    78 1
    78    22    79 1
    79    23    80 1
    80    23    81 1
    81    24    82 1
    82    24    83 1
    83    25    84 1
    84    25    85 1
    85    26    86 1
    86    26    87 1
    87    27    88 1
    88    27    89 1
    89    28    90 1
    90    28    91 1
    91    29    92 1
    92    29    93 1
    93    30    94 1
    94    30    95 1
    95    31    96 1
    96    31    97 1
    97    32    98 1
    98    32    99 1
    99    33   100 1
   100    33   101 1
   101    34   102 1
   102    34   103 1
   103    35   104 1
   104    35   105 1
   105    36   106 1
   106    36   107 1
   107    36   108 1
@<TRIPOS>SUBSTRUCTURE
     1 4AG         1 TEMP              0 ****  ****    0 ROOT
