@<TRIPOS>MOLECULE
4AJ
   29    31     1     0     0
SMALL
bcc


@<TRIPOS>ATOM
      1 CAH         0.0480   -0.1110    0.0090 ca        1 4AJ     -0.170000
      2 CAN         1.4400   -0.1230    0.1680 ca        1 4AJ      0.119100
      3 OAA         2.3050   -0.1660   -0.9010 oh        1 4AJ     -0.493100
      4 CAF         2.0260   -0.0910    1.4450 ca        1 4AJ     -0.132000
      5 CAE         1.2020   -0.0470    2.5640 ca        1 4AJ     -0.104000
      6 CAG        -0.1860   -0.0340    2.4280 ca        1 4AJ     -0.128000
      7 CAQ        -0.7620   -0.0660    1.1510 ca        1 4AJ     -0.101500
      8 CAT        -2.2020   -0.0530    0.9960 cc        1 4AJ      0.519900
      9 OAM        -3.0040   -0.0090    2.1520 os        1 4AJ     -0.387800
     10 NAK        -3.0050   -0.0750   -0.0930 nd        1 4AJ     -0.342000
     11 NAL        -4.2650   -0.0490    0.2930 nd        1 4AJ     -0.341000
     12 CAU        -4.3160   -0.0080    1.6450 cc        1 4AJ      0.516900
     13 CAR        -5.4190    0.0330    2.5790 ca        1 4AJ     -0.157500
     14 CAI        -6.7340    0.0360    2.0950 ca        1 4AJ     -0.048500
     15 CAO        -7.7990    0.0750    2.9940 ca        1 4AJ     -0.048600
     16 CLAC       -9.3880    0.0780    2.3880 cl        1 4AJ     -0.061900
     17 CAS        -7.5660    0.1130    4.3850 ca        1 4AJ      0.168100
     18 OAB        -8.5680    0.1520    5.3140 oh        1 4AJ     -0.469100
     19 CAP        -6.2350    0.1090    4.8620 ca        1 4AJ     -0.048600
     20 CLAD       -5.8920    0.1530    6.5220 cl        1 4AJ     -0.061900
     21 CAJ        -5.1750    0.0700    3.9590 ca        1 4AJ     -0.048500
     22 H1         -0.3990   -0.1360   -0.9970 ha        1 4AJ      0.160000
     23 H2          1.7790   -0.1850   -1.7140 ho        1 4AJ      0.425000
     24 H3          3.1220   -0.1020    1.5390 ha        1 4AJ      0.157000
     25 H4          1.6500   -0.0220    3.5690 ha        1 4AJ      0.143000
     26 H5         -0.8310    0.0010    3.3190 ha        1 4AJ      0.149000
     27 H6         -6.9280    0.0070    1.0090 ha        1 4AJ      0.173000
     28 H7         -9.4220    0.1490    4.8490 ho        1 4AJ      0.439000
     29 H8         -4.1350    0.0670    4.3280 ha        1 4AJ      0.173000
@<TRIPOS>BOND
     1    1    2 ar
     2    1    7 ar
     3    1   22 1
     4    2    3 1
     5    2    4 ar
     6    3   23 1
     7    4    5 ar
     8    4   24 1
     9    5    6 ar
    10    5   25 1
    11    6    7 ar
    12    6   26 1
    13    7    8 1
    14    8    9 1
    15    8   10 2
    16    9   12 1
    17   10   11 1
    18   11   12 2
    19   12   13 1
    20   13   14 ar
    21   13   21 ar
    22   14   15 ar
    23   14   27 1
    24   15   16 1
    25   15   17 ar
    26   17   18 1
    27   17   19 ar
    28   18   28 1
    29   19   20 1
    30   19   21 ar
    31   21   29 1
@<TRIPOS>SUBSTRUCTURE
     1 4AJ         1 TEMP              0 ****  ****    0 ROOT
