@<TRIPOS>MOLECULE
molecule
   22    22     1     0     0
SMALL
bcc


@<TRIPOS>ATOM
      1 C            0.0000     0.0000     0.0000 c3         1 4AL       0.178700
      2 N           -3.3980     0.0000     5.4470 nz         1 4AL      -0.811600
      3 O            1.4290     0.0000     0.0000 oh         1 4AL      -0.597800
      4 C1          -0.5030     0.0000     1.4200 ca         1 4AL      -0.027300
      5 C2          -0.7340     1.1970     2.0720 ca         1 4AL      -0.094000
      6 C3          -1.1950     1.1970     3.3750 ca         1 4AL      -0.103000
      7 C4          -1.4260    -0.0000     4.0260 ca         1 4AL      -0.197300
      8 C5          -1.1970    -1.1980     3.3750 ca         1 4AL      -0.103000
      9 C6          -0.7400    -1.1980     2.0690 ca         1 4AL      -0.094000
     10 C7          -1.9280    -0.0010     5.4470 c3         1 4AL       0.160100
     11 H           -0.3610    -0.8840    -0.5110 h1         1 4AL       0.040700
     12 HA          -0.3610     0.8840    -0.5110 h1         1 4AL       0.040700
     13 HN          -3.7310    -0.0010     6.3910 hn         1 4AL       0.454133
     14 HNA         -3.7320    -0.8160     4.9740 hn         1 4AL       0.454133
     15 HO           1.7430    -0.0000    -0.8890 ho         1 4AL       0.422000
     16 H2          -0.5520     2.1350     1.5620 ha         1 4AL       0.162000
     17 H3          -1.3760     2.1350     3.8860 ha         1 4AL       0.137000
     18 H5          -1.3800    -2.1360     3.8840 ha         1 4AL       0.137000
     19 H6          -0.5600    -2.1360     1.5580 ha         1 4AL       0.162000
     20 H7          -1.5680    -0.8860     5.9560 hx         1 4AL       0.112700
     21 H7A         -1.5660     0.8820     5.9580 hx         1 4AL       0.112700
     22 HN3         -3.7310     0.8190     4.9770 hn         1 4AL       0.454133
@<TRIPOS>BOND
     1     1     3 1
     2     1     4 1
     3     2    10 1
     4     4     5 ar
     5     4     9 ar
     6     5     6 ar
     7     6     7 ar
     8     7     8 ar
     9     7    10 1
    10     8     9 ar
    11     1    11 1
    12     1    12 1
    13     2    13 1
    14     2    14 1
    15     3    15 1
    16     5    16 1
    17     6    17 1
    18     8    18 1
    19     9    19 1
    20    10    20 1
    21    10    21 1
    22    22     2 1
@<TRIPOS>SUBSTRUCTURE
     1 4AL         1 TEMP              0 ****  ****    0 ROOT
