@<TRIPOS>MOLECULE
4AL
   22    22     1     0     0
SMALL
bcc


@<TRIPOS>ATOM
      1 C            0.0000     0.0000     0.0000 c3         1 4AL       0.272700
      2 N           -3.3980     0.0000     5.4470 nz         1 4AL       0.073400
      3 O            1.4290     0.0000     0.0000 oh         1 4AL      -0.582800
      4 C1          -0.5030     0.0000     1.4200 ca         1 4AL      -0.041300
      5 C2          -0.7340     1.1970     2.0720 ca         1 4AL      -0.058500
      6 C3          -1.1950     1.1970     3.3750 ca         1 4AL      -0.071000
      7 C4          -1.4260    -0.0000     4.0260 ca         1 4AL      -0.215300
      8 C5          -1.1970    -1.1980     3.3750 ca         1 4AL      -0.071000
      9 C6          -0.7400    -1.1980     2.0690 ca         1 4AL      -0.058500
     10 C7          -1.9280    -0.0010     5.4470 c3         1 4AL       0.040100
     11 H           -0.3610    -0.8840    -0.5110 h1         1 4AL      -0.001300
     12 HA          -0.3610     0.8840    -0.5110 h1         1 4AL      -0.001300
     13 HN          -3.7310    -0.0010     6.3910 hn         1 4AL       0.222467
     14 HNA         -3.7320    -0.8160     4.9740 hn         1 4AL       0.222467
     15 HO           1.7430    -0.0000    -0.8890 ho         1 4AL       0.408000
     16 H2          -0.5520     2.1350     1.5620 ha         1 4AL       0.129000
     17 H3          -1.3760     2.1350     3.8860 ha         1 4AL       0.108000
     18 H5          -1.3800    -2.1360     3.8840 ha         1 4AL       0.108000
     19 H6          -0.5600    -2.1360     1.5580 ha         1 4AL       0.129000
     20 H7          -1.5680    -0.8860     5.9560 hx         1 4AL       0.081700
     21 H7A         -1.5660     0.8820     5.9580 hx         1 4AL       0.081700
     22 HN3         -3.7310     0.8190     4.9770 hn         1 4AL       0.222467
@<TRIPOS>BOND
     1     1     3 1   
     2     1     4 1   
     3     1    11 1   
     4     1    12 1   
     5     2    10 1   
     6     2    13 1   
     7     2    14 1   
     8     2    22 1   
     9     3    15 1   
    10     4     5 ar  
    11     4     9 ar  
    12     5     6 ar  
    13     5    16 1   
    14     6     7 ar  
    15     6    17 1   
    16     7     8 ar  
    17     7    10 1   
    18     8     9 ar  
    19     8    18 1   
    20     9    19 1   
    21    10    20 1   
    22    10    21 1   
@<TRIPOS>SUBSTRUCTURE
     1 4AL         1 TEMP              0 ****  ****    0 ROOT
