@<TRIPOS>MOLECULE
molecule
   38    38     1     0     0
SMALL
bcc


@<TRIPOS>ATOM
      1 C1           0.0000     0.0000     0.0000 c          1 4AM       0.865800
      2 O1A          1.3470     0.0000     0.0000 o          1 4AM      -0.772800
      3 O1B         -0.6080     0.0000     1.0520 o          1 4AM      -0.772800
      4 C2          -0.7360    -0.0010    -1.2770 ce         1 4AM       0.149900
      5 C3          -2.0530    -0.0010    -1.2020 c2         1 4AM      -0.435200
      6 C4          -2.9280     0.0180    -2.4290 c3         1 4AM       0.151700
      7 N4          -3.9660    -1.0160    -2.3160 nz         1 4AM      -0.807600
      8 C5          -2.0440    -0.2670    -3.6510 c3         1 4AM       0.051700
      9 N5          -2.7340     0.1480    -4.8740 ns         1 4AM      -0.595900
     10 C10         -3.5100    -0.7270    -5.5420 c          1 4AM       0.657100
     11 O10         -3.6370    -1.8600    -5.1310 o          1 4AM      -0.641100
     12 C11         -4.2200    -0.2980    -6.8000 c3         1 4AM      -0.171100
     13 C6          -0.7500     0.5380    -3.4810 c3         1 4AM       0.121100
     14 O6           0.0010    -0.0010    -2.4010 os         1 4AM      -0.219900
     15 C7           0.0760     0.4610    -4.7660 c3         1 4AM       0.159100
     16 O7           0.3970    -0.9030    -5.0440 oh         1 4AM      -0.579800
     17 C8           1.3670     1.2630    -4.5920 c3         1 4AM       0.135100
     18 O8           1.0460     2.6270    -4.3140 oh         1 4AM      -0.619800
     19 C9           2.1930     1.1860    -5.8770 c3         1 4AM       0.117400
     20 O9           3.4000     1.9340    -5.7140 oh         1 4AM      -0.602800
     21 H3          -2.5220    -0.0160    -0.2260 ha         1 4AM       0.189000
     22 H4          -3.3880     0.9930    -2.5330 hx         1 4AM       0.092700
     23 HN41        -4.8440    -0.6420    -2.6180 hn         1 4AM       0.450133
     24 HN42        -3.7220    -1.7990    -2.8890 hn         1 4AM       0.450133
     25 H5          -1.8120    -1.3250    -3.6950 h1         1 4AM       0.119700
     26 H5N         -2.6460     1.0900    -5.2020 hn         1 4AM       0.333500
     27 H111        -4.7310     0.6410    -6.6250 hc         1 4AM       0.071700
     28 H112        -4.9420    -1.0550    -7.0830 hc         1 4AM       0.071700
     29 H113        -3.4970    -0.1730    -7.5980 hc         1 4AM       0.071700
     30 H6          -0.9960     1.5710    -3.2670 h1         1 4AM       0.080700
     31 H7          -0.4960     0.8720    -5.5890 h1         1 4AM       0.036700
     32 H7O          0.1660    -1.1050    -5.9350 ho         1 4AM       0.401000
     33 H8           1.9400     0.8520    -3.7690 h1         1 4AM       0.101700
     34 H8O          1.7090     2.9990    -3.7560 ho         1 4AM       0.435000
     35 H91          2.4360     0.1520    -6.0890 h1         1 4AM       0.025200
     36 H92          1.6210     1.5980    -6.6990 h1         1 4AM       0.025200
     37 HO9          3.9380     1.8340    -6.4820 ho         1 4AM       0.406000
     38 H43         -4.0380    -1.3130    -1.3630 hn         1 4AM       0.450133
@<TRIPOS>BOND
     1     1     2 1   
     2     1     3 1   
     3     1     4 1   
     4     4     5 2   
     5     4    14 1   
     6     5     6 1   
     7     5    21 1   
     8     6     7 1   
     9     6     8 1   
    10     6    22 1   
    11     7    23 1   
    12     7    24 1   
    13     8     9 1   
    14     8    13 1   
    15     8    25 1   
    16     9    10 1   
    17     9    26 1   
    18    10    11 2   
    19    10    12 1   
    20    12    27 1   
    21    12    28 1   
    22    12    29 1   
    23    13    14 1   
    24    13    15 1   
    25    13    30 1   
    26    15    16 1   
    27    15    17 1   
    28    15    31 1   
    29    16    32 1   
    30    17    18 1   
    31    17    19 1   
    32    17    33 1   
    33    18    34 1   
    34    19    20 1   
    35    19    35 1   
    36    19    36 1   
    37    20    37 1   
    38    38     7 1   
@<TRIPOS>SUBSTRUCTURE
     1 4AM         1 TEMP              0 ****  ****    0 ROOT
