@<TRIPOS>MOLECULE
4AN
   24    26     1     0     0
SMALL
bcc


@<TRIPOS>ATOM
      1 C1A          0.0000     0.0000     0.0000 c          1 4AN       0.649100
      2 O1A         -0.6040     0.0000     1.0560 o          1 4AN      -0.663500
      3 C1           1.4670     0.0000     0.0000 ca         1 4AN      -0.251600
      4 C2           2.2030     0.0000     1.1810 ca         1 4AN       0.069000
      5 C3           3.5850    -0.0000     1.1420 ca         1 4AN      -0.235000
      6 C4           4.2740    -0.0000    -0.0630 ca         1 4AN       0.103600
      7 N4           5.6550    -0.0000    -0.0730 nv         1 4AN      -0.425200
      8 C5           4.1990    -0.0010    -2.5260 ca         1 4AN      -0.038000
      9 C6           3.4570    -0.0000    -3.6850 ca         1 4AN      -0.143000
     10 C7           2.0710    -0.0000    -3.6550 ca         1 4AN       0.019000
     11 C8           1.3990    -0.0000    -2.4400 ca         1 4AN      -0.190600
     12 C8A         -0.0680    -0.0000    -2.3580 c          1 4AN       0.642100
     13 O8A         -0.7320    -0.0000    -3.3780 o          1 4AN      -0.659500
     14 N9          -0.6830     0.0000    -1.1600 ns         1 4AN      -0.140500
     15 C9           2.1450     0.0000    -1.2400 ca         1 4AN       0.066000
     16 C10          3.5530     0.0050    -1.2800 ca         1 4AN      -0.113000
     17 H2           1.6910     0.0000     2.1350 ha         1 4AN       0.121000
     18 H3           4.1420    -0.0050     2.0720 ha         1 4AN       0.116000
     19 HN41         6.1500     0.4190    -0.8350 hn         1 4AN       0.273300
     20 HN42         6.1610    -0.4390     0.6710 hn         1 4AN       0.273300
     21 H5           5.2810    -0.0010    -2.5750 ha         1 4AN       0.100000
     22 H6           3.9670     0.0010    -4.6410 ha         1 4AN       0.109000
     23 H7           1.5100     0.0010    -4.5820 ha         1 4AN       0.124000
     24 HN9         -1.6830     0.0010    -1.1310 hn         1 4AN       0.193500
@<TRIPOS>BOND
     1     1     2 2   
     2     1     3 1   
     3     1    14 1   
     4     3     4 ar  
     5     3    15 ar  
     6     4     5 ar  
     7     4    17 1   
     8     5     6 ar  
     9     5    18 1   
    10     6     7 1   
    11     6    16 ar  
    12     7    19 1   
    13     7    20 1   
    14     8     9 ar  
    15     8    16 ar  
    16     8    21 1   
    17     9    10 ar  
    18     9    22 1   
    19    10    11 ar  
    20    10    23 1   
    21    11    12 1   
    22    11    15 ar  
    23    12    13 2   
    24    12    14 1   
    25    14    24 1   
    26    15    16 ar  
@<TRIPOS>SUBSTRUCTURE
     1 4AN         1 TEMP              0 ****  ****    0 ROOT
