@<TRIPOS>MOLECULE
4AO
   35    36     1     0     0
SMALL
bcc


@<TRIPOS>ATOM
      1 C4           0.0000     0.0000     0.0000 ca         1 4AO      -0.046000
      2 C5           1.3640     0.0000     0.0000 ca         1 4AO      -0.024000
      3 C6           2.0790     0.0000     1.1950 ca         1 4AO      -0.029000
      4 N1          -2.6850     0.0020     2.4640 nb         1 4AO      -0.761000
      5 C7           1.4380     0.0000     2.3970 ca         1 4AO      -0.113600
      6 C8           0.0350     0.0000     2.4340 ca         1 4AO       0.372600
      7 C9          -1.9660     0.0010     3.5890 ca         1 4AO       0.520000
      8 C10         -3.0220    -1.1350     5.3130 c2         1 4AO      -0.152900
      9 C11          2.2300    -0.0000     3.6780 c3         1 4AO       0.064200
     10 N3          -2.6870    -2.3230     4.7210 nz         1 4AO       0.203900
     11 N4          -3.7760    -1.1290     6.4550 nz         1 4AO       0.203900
     12 C2          -2.1050     0.0060     1.2770 ca         1 4AO       0.751600
     13 O           -2.8450     0.0070     0.1440 os         1 4AO      -0.373100
     14 N           -0.6410     0.0010     3.5900 nb         1 4AO      -0.549000
     15 C3          -0.6900     0.0060     1.2170 ca         1 4AO      -0.254600
     16 H1          -0.5450     0.0000    -0.9360 ha         1 4AO       0.145000
     17 H2           1.8980    -0.0000    -0.9420 ha         1 4AO       0.138000
     18 H3           3.1620    -0.0000     1.1680 ha         1 4AO       0.140000
     19 H5           3.2870     0.0620     3.4500 hc         1 4AO       0.024700
     20 H6           1.9410     0.8520     4.2820 hc         1 4AO       0.024700
     21 H7           2.0320    -0.9140     4.2250 hc         1 4AO       0.024700
     22 H8          -1.6960    -2.3580     4.5800 hn         1 4AO       0.240633
     23 H9          -3.1530    -2.4000     3.8390 hn         1 4AO       0.240633
     24 H10         -4.6480    -1.5880     6.2820 hn         1 4AO       0.240633
     25 C1          -4.2660     0.0020     0.2980 c3         1 4AO       0.215400
     26 C12         -4.9280     0.0030    -1.0810 c3         1 4AO      -0.000100
     27 H4          -3.9460    -0.1840     6.7380 hn         1 4AO       0.240633
     28 H13         -4.5670    -0.8850     0.8430 h1         1 4AO       0.003700
     29 H14         -4.5730     0.8840     0.8470 h1         1 4AO       0.003700
     30 H15         -6.0050    -0.0010    -0.9640 hc         1 4AO       0.029367
     31 H16         -4.6210    -0.8790    -1.6300 hc         1 4AO       0.029367
     32 H17         -4.6270     0.8900    -1.6250 hc         1 4AO       0.029367
     33 N2          -2.6200     0.0010     4.7820 ne         1 4AO      -0.064700
     34 H33         -2.9730    -3.0810     5.3090 hn         1 4AO       0.240633
     35 H43         -3.2840    -1.6090     7.1820 hn         1 4AO       0.240633
@<TRIPOS>BOND
     1     1     2 ar  
     2     1    15 ar  
     3     1    16 1   
     4     2     3 ar  
     5     2    17 1   
     6     3     5 ar  
     7     3    18 1   
     8     4     7 ar  
     9     4    12 ar  
    10     5     6 ar  
    11     5     9 1   
    12     6    14 ar  
    13     6    15 ar  
    14     7    14 ar  
    15     7    33 1   
    16     8    10 1   
    17     8    11 1   
    18     8    33 2   
    19     9    19 1   
    20     9    20 1   
    21     9    21 1   
    22    10    22 1   
    23    10    23 1   
    24    10    34 1   
    25    11    24 1   
    26    11    27 1   
    27    11    35 1   
    28    12    13 1   
    29    12    15 ar  
    30    13    25 1   
    31    25    26 1   
    32    25    28 1   
    33    25    29 1   
    34    26    30 1   
    35    26    31 1   
    36    26    32 1   
@<TRIPOS>SUBSTRUCTURE
     1 4AO         1 TEMP              0 ****  ****    0 ROOT
