@<TRIPOS>MOLECULE
molecule
   35    36     1     0     0
SMALL
bcc


@<TRIPOS>ATOM
      1 C4           0.0000     0.0000     0.0000 ca         1 4AO      -0.079000
      2 C5           1.3640     0.0000     0.0000 ca         1 4AO      -0.068000
      3 C6           2.0790     0.0000     1.1950 ca         1 4AO      -0.067000
      4 N1          -2.6850     0.0020     2.4640 nb         1 4AO      -0.859000
      5 C7           1.4380     0.0000     2.3970 ca         1 4AO      -0.105600
      6 C8           0.0350     0.0000     2.4340 ca         1 4AO       0.423600
      7 C9          -1.9660     0.0010     3.5890 ca         1 4AO       0.714000
      8 C10         -3.0220    -1.1350     5.3130 c2         1 4AO       0.435100
      9 C11          2.2300    -0.0000     3.6780 c3         1 4AO      -0.048800
     10 N3          -2.6870    -2.3230     4.7210 nz         1 4AO      -0.757100
     11 N4          -3.7760    -1.1290     6.4550 nz         1 4AO      -0.757100
     12 C2          -2.1050     0.0060     1.2770 ca         1 4AO       0.763600
     13 O           -2.8450     0.0070     0.1440 os         1 4AO      -0.385100
     14 N           -0.6410     0.0010     3.5900 nb         1 4AO      -0.680000
     15 C3          -0.6900     0.0060     1.2170 ca         1 4AO      -0.251600
     16 H1          -0.5450     0.0000    -0.9360 ha         1 4AO       0.180000
     17 H2           1.8980    -0.0000    -0.9420 ha         1 4AO       0.178000
     18 H3           3.1620    -0.0000     1.1680 ha         1 4AO       0.178000
     19 H5           2.0950    -0.9470     4.1860 hc         1 4AO       0.064033
     20 H6           1.8850     0.8040     4.3170 hc         1 4AO       0.064033
     21 H7           3.2800     0.1420     3.4540 hc         1 4AO       0.064033
     22 H8          -3.0920    -2.3670     3.8070 hn         1 4AO       0.498800
     23 H9          -1.6910    -2.3900     4.6480 hn         1 4AO       0.498800
     24 H10         -4.6490    -1.5860     6.2820 hn         1 4AO       0.498800
     25 C1          -4.2660     0.0020     0.2980 c3         1 4AO       0.133400
     26 C12         -4.9280     0.0030    -1.0810 c3         1 4AO      -0.097100
     27 H4          -3.9450    -0.1840     6.7380 hn         1 4AO       0.498800
     28 H13         -4.5730     0.8840     0.8470 h1         1 4AO       0.045700
     29 H14         -4.5670    -0.8850     0.8430 h1         1 4AO       0.045700
     30 H15         -6.0040    -0.0340    -0.9650 hc         1 4AO       0.069700
     31 H16         -4.5950    -0.8620    -1.6420 hc         1 4AO       0.069700
     32 H17         -4.6520     0.9060    -1.6130 hc         1 4AO       0.069700
     33 N2          -2.6200     0.0010     4.7820 ne         1 4AO      -0.338700
     34 H33         -3.0390    -3.0810     5.2720 hn         1 4AO       0.498800
     35 H43         -3.2860    -1.6130     7.1810 hn         1 4AO       0.498800
@<TRIPOS>BOND
     1    11     8 1
     2     9     5 1
     3    10     8 1
     4     8    33 2
     5     5     3 ar
     6     5     6 ar
     7    14     6 ar
     8    14     7 ar
     9    33     7 1
    10     3     2 ar
    11     6    15 ar
    12     7     4 ar
    13     2     1 ar
    14    15     1 ar
    15    15    12 ar
    16     4    12 ar
    17    12    13 1
    18     1    16 1
    19     2    17 1
    20     3    18 1
    21     9    19 1
    22     9    20 1
    23     9    21 1
    24    10    22 1
    25    10    23 1
    26    11    24 1
    27    13    25 1
    28    25    26 1
    29    11    27 1
    30    25    28 1
    31    25    29 1
    32    26    30 1
    33    26    31 1
    34    26    32 1
    35    34    10 1
    36    35    11 1
@<TRIPOS>SUBSTRUCTURE
     1 4AO         1 TEMP              0 ****  ****    0 ROOT
