@<TRIPOS>MOLECULE
4AP
   14    14     1     0     0
SMALL
bcc


@<TRIPOS>ATOM
      1 N1           0.0000     0.0000     0.0000 na         1 4AP       0.622900
      2 C2           1.3200     0.0000     0.0000 ca         1 4AP      -0.248300
      3 C3           2.0270     0.0000     1.1850 ca         1 4AP      -0.065500
      4 C4           1.3280    -0.0120     2.3910 ca         1 4AP       0.136600
      5 C5          -0.0660    -0.0110     2.3470 ca         1 4AP      -0.065500
      6 C6          -0.6980    -0.0050     1.1210 ca         1 4AP      -0.248300
      7 N4           2.0040    -0.0180     3.6080 nv         1 4AP      -0.551200
      8 HN1         -0.4860     0.0020    -0.8750 hn         1 4AP       0.131700
      9 H2           1.8550     0.0070    -0.9420 h4         1 4AP       0.172000
     10 H3           3.1110    -0.0000     1.1780 ha         1 4AP       0.159000
     11 H5          -0.6440    -0.0180     3.2630 ha         1 4AP       0.159000
     12 H6          -1.7800    -0.0040     1.0770 h4         1 4AP       0.172000
     13 HN41         2.2460     0.8460     4.0500 hn         1 4AP       0.312800
     14 HN42         2.2480    -0.8870     4.0400 hn         1 4AP       0.312800
@<TRIPOS>BOND
     1     1     2 1   
     2     1     6 2   
     3     1     8 1   
     4     2     3 ar  
     5     2     9 1   
     6     3     4 ar  
     7     3    10 1   
     8     4     5 ar  
     9     4     7 1   
    10     5     6 ar  
    11     5    11 1   
    12     6    12 1   
    13     7    13 1   
    14     7    14 1   
@<TRIPOS>SUBSTRUCTURE
     1 4AP         1 TEMP              0 ****  ****    0 ROOT
