@<TRIPOS>MOLECULE
4AQ
   38    40     1     0     0
SMALL
bcc


@<TRIPOS>ATOM
      1 C4           0.0000     0.0000     0.0000 cc         1 4AQ      -0.316600
      2 C5          -0.8840    -0.0010    -1.2210 c3         1 4AQ       0.248100
      3 C6          -1.9330     1.4180    -2.8800 c3         1 4AQ       0.139800
      4 N1          -1.0740     1.3790    -1.6880 n7         1 4AQ      -0.600200
      5 C7          -2.1070     2.8680    -3.3360 c3         1 4AQ       0.070800
      6 C8          -2.9870     2.9090    -4.5580 cc         1 4AQ      -0.150400
      7 N2          -3.6610     2.9600    -6.6720 na         1 4AQ       0.355600
      8 C9          -2.5780     2.9240    -5.8370 cd         1 4AQ      -0.266100
      9 C10         -4.8220     2.9660    -5.9330 ca         1 4AQ      -0.226200
     10 C11         -4.4510     2.9310    -4.5760 ca         1 4AQ      -0.095800
     11 C12         -5.4350     2.9260    -3.5860 ca         1 4AQ      -0.044000
     12 C13         -6.7540     2.9530    -3.9400 ca         1 4AQ      -0.132000
     13 C14         -7.1250     2.9870    -5.2760 ca         1 4AQ      -0.085000
     14 C15         -6.1710     2.9920    -6.2700 ca         1 4AQ      -0.104000
     15 C            2.2160     0.0020    -1.1910 c3         1 4AQ      -0.024400
     16 N            1.3620     0.0000     0.0000 na         1 4AQ       0.461900
     17 C3          -0.4220     0.0050     1.2810 cd         1 4AQ      -0.172000
     18 C2           0.7230     0.0030     2.1020 cd         1 4AQ      -0.173000
     19 C1           1.8010     0.0000     1.2920 cc         1 4AQ      -0.328300
     20 H1          -0.4180    -0.5860    -2.0040 h1         1 4AQ       0.008700
     21 H2          -1.8450    -0.4330    -0.9710 h1         1 4AQ       0.008700
     22 H3          -2.9010     0.9960    -2.6400 h1         1 4AQ       0.008700
     23 H4          -1.4740     0.8420    -3.6740 h1         1 4AQ       0.008700
     24 H5          -1.4900     1.9240    -0.9590 hn         1 4AQ       0.262800
     25 H7          -2.5660     3.4440    -2.5410 hc         1 4AQ       0.018700
     26 H8          -1.1380     3.2910    -3.5740 hc         1 4AQ       0.018700
     27 H9          -3.6150     2.9770    -7.6720 hn         1 4AQ       0.112700
     28 H10         -1.5430     2.9100    -6.1590 h4         1 4AQ       0.141000
     29 H11         -5.1530     2.8990    -2.5400 ha         1 4AQ       0.100000
     30 H12         -7.5170     2.9490    -3.1710 ha         1 4AQ       0.102000
     31 H13         -8.1750     3.0080    -5.5410 ha         1 4AQ       0.100000
     32 H14         -6.4710     3.0190    -7.3110 ha         1 4AQ       0.098000
     33 H15          2.0990     0.9410    -1.7170 h1         1 4AQ       0.022033
     34 H16          3.2510    -0.1190    -0.8940 h1         1 4AQ       0.022033
     35 H17          1.9290    -0.8150    -1.8420 h1         1 4AQ       0.022033
     36 H18         -1.4520     0.0070     1.6160 ha         1 4AQ       0.123000
     37 H19          0.7360     0.0050     3.1850 ha         1 4AQ       0.122000
     38 H20          2.8360    -0.0010     1.6110 h4         1 4AQ       0.142000
@<TRIPOS>BOND
     1     1     2 1   
     2     1    16 1   
     3     1    17 2   
     4     2     4 1   
     5     2    20 1   
     6     2    21 1   
     7     3     4 1   
     8     3     5 1   
     9     3    22 1   
    10     3    23 1   
    11     4    24 1   
    12     5     6 1   
    13     5    25 1   
    14     5    26 1   
    15     6     8 2   
    16     6    10 1   
    17     7     8 1   
    18     7     9 1   
    19     7    27 1   
    20     8    28 1   
    21     9    10 ar  
    22     9    14 ar  
    23    10    11 ar  
    24    11    12 ar  
    25    11    29 1   
    26    12    13 ar  
    27    12    30 1   
    28    13    14 ar  
    29    13    31 1   
    30    14    32 1   
    31    15    16 1   
    32    15    33 1   
    33    15    34 1   
    34    15    35 1   
    35    16    19 1   
    36    17    18 1   
    37    17    36 1   
    38    18    19 2   
    39    18    37 1   
    40    19    38 1   
@<TRIPOS>SUBSTRUCTURE
     1 4AQ         1 TEMP              0 ****  ****    0 ROOT
