@<TRIPOS>MOLECULE
4AS
   20    20     1     0     0
SMALL
bcc


@<TRIPOS>ATOM
      1 C4           0.0000     0.0000     0.0000 cc         1 4AS      -0.439600
      2 C5           2.2380     0.0000    -1.1790 c3         1 4AS      -0.016400
      3 N1           0.7110     0.0080     2.0550 nd         1 4AS      -0.620000
      4 N2           1.3690     0.0000     0.0000 na         1 4AS       0.316100
      5 C3          -0.3900     0.0060     1.2890 cd         1 4AS       0.323200
      6 C2           1.7680     0.0000     1.2900 cc         1 4AS       0.186800
      7 C1           3.1970     0.0010     1.7680 c3         1 4AS       0.144500
      8 N            3.6580    -1.3850     1.9320 n7         1 4AS      -0.597200
      9 C            5.0520    -1.4230     2.3980 c3         1 4AS       0.179100
     10 H1          -0.6460    -0.0030    -0.8700 h4         1 4AS       0.152000
     11 H2           1.6310     0.0300    -2.0750 h1         1 4AS       0.025367
     12 H3           2.8430    -0.8990    -1.1820 h1         1 4AS       0.025367
     13 H4           2.8840     0.8700    -1.1510 h1         1 4AS       0.025367
     14 H5          -1.4130     0.0090     1.6440 h4         1 4AS       0.002100
     15 H6           3.2600     0.5180     2.7180 h1         1 4AS       0.014700
     16 H7           3.8210     0.5050     1.0400 h1         1 4AS       0.014700
     17 H8           3.0730    -1.8550     2.5940 hn         1 4AS       0.267800
     18 H10          5.1390    -0.8670     3.3230 h1         1 4AS      -0.001633
     19 H11          5.3490    -2.4510     2.5650 h1         1 4AS      -0.001633
     20 H12          5.6950    -0.9790     1.6480 h1         1 4AS      -0.001633
@<TRIPOS>BOND
     1     1     4 1   
     2     1     5 2   
     3     1    10 1   
     4     2     4 1   
     5     2    11 1   
     6     2    12 1   
     7     2    13 1   
     8     3     5 1   
     9     3     6 2   
    10     4     6 1   
    11     5    14 1   
    12     6     7 1   
    13     7     8 1   
    14     7    15 1   
    15     7    16 1   
    16     8     9 1   
    17     8    17 1   
    18     9    18 1   
    19     9    19 1   
    20     9    20 1   
@<TRIPOS>SUBSTRUCTURE
     1 4AS         1 TEMP              0 ****  ****    0 ROOT
