@<TRIPOS>MOLECULE
4AT
   18    17     1     0     0
SMALL
bcc


@<TRIPOS>ATOM
      1 C           0.2340   -0.9640   -0.1390 c         1 4AT      0.905600
      2 O1          0.0690   -2.2140    0.0010 o         1 4AT     -0.851800
      3 O2          1.0210   -0.2820    0.5750 o         1 4AT     -0.851800
      4 CA         -0.5710   -0.2330   -1.2280 c3        1 4AT     -0.200400
      5 CB         -0.2170   -0.7240   -2.6140 c3        1 4AT     -0.039400
      6 CG         -0.7540   -2.1190   -2.8780 c3        1 4AT     -0.196400
      7 C2A         1.5010   -3.2690   -2.7460 c3        1 4AT     -0.220100
      8 C1A         0.2580   -3.0100   -3.5350 c         1 4AT      0.584100
      9 OAC         0.0620   -3.5260   -4.6470 o         1 4AT     -0.604100
     10 HA1        -1.6610   -0.3910   -1.0310 hc        1 4AT      0.025700
     11 HA2        -0.3580    0.8640   -1.1570 hc        1 4AT      0.025700
     12 HB1         0.9000   -0.7110   -2.7220 hc        1 4AT      0.019700
     13 HB2        -0.6300   -0.0190   -3.3840 hc        1 4AT      0.019700
     14 HG1        -1.6810   -2.0660   -3.5040 hc        1 4AT      0.081200
     15 HG2        -1.0160   -2.5980   -1.8870 hc        1 4AT      0.081200
     16 H2A1        1.8520   -4.3160   -2.9010 hc        1 4AT      0.073367
     17 H2A2        1.3080   -3.0860   -1.6520 hc        1 4AT      0.073367
     18 H2A3        2.3050   -2.5710   -3.0860 hc        1 4AT      0.073367
@<TRIPOS>BOND
     1    1    2 1   
     2    1    3 1   
     3    1    4 1   
     4    4    5 1   
     5    4   10 1   
     6    4   11 1   
     7    5    6 1   
     8    5   12 1   
     9    5   13 1   
    10    6    8 1   
    11    6   14 1   
    12    6   15 1   
    13    7    8 1   
    14    7   16 1   
    15    7   17 1   
    16    7   18 1   
    17    8    9 2   
@<TRIPOS>SUBSTRUCTURE
     1 4AT         1 TEMP              0 ****  ****    0 ROOT
