@<TRIPOS>MOLECULE
molecule
   18    17     1     0     0
SMALL
bcc


@<TRIPOS>ATOM
      1 C            0.0000     0.0000     0.0000 c          1 4AT       0.889600
      2 O1           1.2240     0.0000     0.0000 o          1 4AT      -0.857800
      3 O2          -0.7460     0.0000     1.1330 o          1 4AT      -0.857800
      4 CA          -0.8430    -0.0180    -1.2520 c3         1 4AT      -0.179400
      5 CB          -0.1420    -0.6580    -2.4490 c3         1 4AT      -0.054400
      6 CG           0.1470    -2.1470    -2.2700 c3         1 4AT      -0.170400
      7 C2A          0.9630    -4.3020    -3.4430 c3         1 4AT      -0.195100
      8 C1A          0.7270    -2.8160    -3.5000 c          1 4AT       0.559100
      9 OAC          0.9990    -2.1650    -4.5100 o          1 4AT      -0.558100
     10 HA1         -1.1040     1.0020    -1.5080 hc         1 4AT       0.031700
     11 HA2         -1.7530    -0.5690    -1.0480 hc         1 4AT       0.031700
     12 HB1         -0.7690    -0.5320    -3.3240 hc         1 4AT       0.031700
     13 HB2          0.7950    -0.1420    -2.6170 hc         1 4AT       0.031700
     14 HG1         -0.7770    -2.6480    -2.0090 hc         1 4AT       0.072700
     15 HG2          0.8470    -2.2650    -1.4510 hc         1 4AT       0.072700
     16 H2A1         0.0170    -4.8130    -3.3060 hc         1 4AT       0.051367
     17 H2A2         1.6200    -4.5320    -2.6130 hc         1 4AT       0.051367
     18 H2A3         1.4200    -4.6310    -4.3680 hc         1 4AT       0.051367
@<TRIPOS>BOND
     1     1     2 1   
     2     1     3 1   
     3     1     4 1   
     4     4     5 1   
     5     4    10 1   
     6     4    11 1   
     7     5     6 1   
     8     5    12 1   
     9     5    13 1   
    10     6     8 1   
    11     6    14 1   
    12     6    15 1   
    13     7     8 1   
    14     7    16 1   
    15     7    17 1   
    16     7    18 1   
    17     8     9 2   
@<TRIPOS>SUBSTRUCTURE
     1 4AT         1 TEMP              0 ****  ****    0 ROOT
