@<TRIPOS>MOLECULE
molecule
   25    27     1     0     0
SMALL
bcc


@<TRIPOS>ATOM
      1 C1           0.0000     0.0000     0.0000 ca         1 4AU      -0.104000
      2 C2           1.3770     0.0000     0.0000 ca         1 4AU      -0.127000
      3 C3           2.0660     0.0000     1.2070 ca         1 4AU      -0.083200
      4 C4           1.3500     0.0000     2.4210 ca         1 4AU       0.086400
      5 C5          -0.0500    -0.0010     2.3930 ca         1 4AU      -0.068000
      6 C6          -0.7060    -0.0010     1.1960 ca         1 4AU      -0.143000
      7 C8           3.4660     0.0000     2.9160 cc         1 4AU       0.356800
      8 N17          3.4000    -0.0000     1.5470 na         1 4AU      -0.224300
      9 C10          4.7140     0.0000     3.7090 c          1 4AU       0.567400
     10 C11          4.6530    -0.0010     5.1710 cc         1 4AU      -0.217900
     11 C12          5.7330    -0.0010     6.0350 cd         1 4AU      -0.111000
     12 C13          5.2190    -0.0010     7.3330 cd         1 4AU      -0.230000
     13 C14          3.8650    -0.0020     7.2460 cc         1 4AU      -0.126300
     14 N7           3.5090     0.0050     5.9380 na         1 4AU      -0.121100
     15 N9           2.2550    -0.0010     3.4170 nd         1 4AU      -0.606100
     16 O16          5.7920     0.0000     3.1440 o          1 4AU      -0.528100
     17 H21          2.5710     0.0060     5.5880 hn         1 4AU       0.329700
     18 H23          6.7800    -0.0000     5.7570 ha         1 4AU       0.163000
     19 H24          5.7980    -0.0030     8.2480 ha         1 4AU       0.152000
     20 H25          3.1800    -0.0010     8.0850 h4         1 4AU       0.168000
     21 H26          4.1670    -0.1490     0.9220 hn         1 4AU       0.321700
     22 H1          -0.5370    -0.0000    -0.9410 ha         1 4AU       0.137000
     23 H2           1.9210     0.0010    -0.9370 ha         1 4AU       0.133000
     24 H6          -1.7890    -0.0010     1.1790 ha         1 4AU       0.136000
     25 H5          -0.6120    -0.0020     3.3200 ha         1 4AU       0.141000
@<TRIPOS>BOND
     1     1     2 ar
     2     1     6 ar
     3     2     3 ar
     4     3     4 ar
     5     3     8 1
     6     4     5 ar
     7     4    15 1
     8     5     6 ar
     9     7     8 1
    10     7     9 1
    11     7    15 2
    12     9    10 1
    13     9    16 2
    14    10    11 2
    15    10    14 1
    16    11    12 1
    17    12    13 2
    18    13    14 1
    19    14    17 1
    20     8    21 1
    21    11    18 1
    22    12    19 1
    23    13    20 1
    24     1    22 1
    25     2    23 1
    26     6    24 1
    27     5    25 1
@<TRIPOS>SUBSTRUCTURE
     1 4AU         1 TEMP              0 ****  ****    0 ROOT
