@<TRIPOS>MOLECULE
4AU
   25    27     1     0     0
SMALL
bcc


@<TRIPOS>ATOM
      1 C1          0.0310    0.0090   -0.1040 ca        1 4AU     -0.104000
      2 C2          1.4140    0.0160   -0.0720 ca        1 4AU     -0.133000
      3 C3          2.0290    0.0120    1.1900 ca        1 4AU     -0.063200
      4 C4          1.2420    0.0020    2.4140 ca        1 4AU      0.061400
      5 C5         -0.1610   -0.0050    2.3310 ca        1 4AU     -0.066000
      6 C6         -0.7420   -0.0010    1.0760 ca        1 4AU     -0.152000
      7 C8          3.3580    0.0100    3.0080 cc        1 4AU      0.347800
      8 N17         3.3600    0.0170    1.5940 na        1 4AU     -0.243300
      9 C10         4.6520    0.0120    3.7570 c         1 4AU      0.559400
     10 C11         4.6420    0.0070    5.2070 cc        1 4AU     -0.228900
     11 C12         5.8090    0.0090    6.0180 cd        1 4AU     -0.097000
     12 C13         5.3840    0.0020    7.3730 cd        1 4AU     -0.223000
     13 C14         3.9720   -0.0040    7.3620 cc        1 4AU     -0.120300
     14 N7          3.5300   -0.0010    6.0570 na        1 4AU     -0.126100
     15 N9          2.1060    0.0010    3.5180 nd        1 4AU     -0.572100
     16 O16         5.7130    0.0190    3.1140 o         1 4AU     -0.546100
     17 H21         2.5830   -0.0040    5.7670 hn        1 4AU      0.326700
     18 H23         6.8290    0.0140    5.6390 ha        1 4AU      0.168000
     19 H24         6.0160    0.0010    8.2550 ha        1 4AU      0.158000
     20 H25         3.2730   -0.0100    8.2010 h4        1 4AU      0.171000
     21 H26         4.1670    0.0240    1.0250 hn        1 4AU      0.325700
     22 H1         -0.4870    0.0110   -1.0760 ha        1 4AU      0.136000
     23 H2          2.0100    0.0230   -0.9940 ha        1 4AU      0.141000
     24 H6         -1.8390   -0.0060    0.9870 ha        1 4AU      0.136000
     25 H5         -0.7700   -0.0120    3.2460 ha        1 4AU      0.147000
@<TRIPOS>BOND
     1    1    2 ar  
     2    1    6 ar  
     3    1   22 1   
     4    2    3 ar  
     5    2   23 1   
     6    3    4 ar  
     7    3    8 1   
     8    4    5 ar  
     9    4   15 1   
    10    5    6 ar  
    11    5   25 1   
    12    6   24 1   
    13    7    8 1   
    14    7    9 1   
    15    7   15 2   
    16    8   21 1   
    17    9   10 1   
    18    9   16 2   
    19   10   11 2   
    20   10   14 1   
    21   11   12 1   
    22   11   18 1   
    23   12   13 2   
    24   12   19 1   
    25   13   14 1   
    26   13   20 1   
    27   14   17 1   
@<TRIPOS>SUBSTRUCTURE
     1 4AU         1 TEMP              0 ****  ****    0 ROOT
