@<TRIPOS>MOLECULE
molecule
   22    22     1     0     0
SMALL
bcc


@<TRIPOS>ATOM
      1 C4           0.0000     0.0000     0.0000 ca         1 4AV      -0.160200
      2 C5           1.3830     0.0000     0.0000 ca         1 4AV      -0.061000
      3 C6           2.0740     0.0000     1.1960 ca         1 4AV      -0.134000
      4 N1          -0.7400    -0.0010    -1.2820 no         1 4AV       0.295200
      5 C7           1.3830     0.0020     2.3950 ca         1 4AV       0.086400
      6 O1          -0.1310    -0.0020    -2.3360 o          1 4AV      -0.203500
      7 O           -1.9570    -0.0000    -1.2820 o          1 4AV      -0.203500
      8 C3          -0.6910    -0.0040     1.1970 ca         1 4AV      -0.061000
      9 Cl           2.2510     0.0020     3.8980 cl         1 4AV      -0.065400
     10 C2          -0.0010     0.0020     2.3940 ca         1 4AV      -0.091300
     11 C1          -0.7550    -0.0030     3.6990 c3         1 4AV       0.202100
     12 N           -0.6790    -1.3400     4.3030 n7         1 4AV      -0.813200
     13 C           -1.4050    -1.3830     5.5800 c3         1 4AV       0.147100
     14 H1           1.9240    -0.0010    -0.9380 ha         1 4AV       0.171000
     15 H2           3.1570    -0.0000     1.1960 ha         1 4AV       0.161000
     16 H3          -1.7750    -0.0040     1.1970 ha         1 4AV       0.169000
     17 H4          -0.3160     0.7230     4.3730 h1         1 4AV       0.049700
     18 H5          -1.7920     0.2530     3.5180 h1         1 4AV       0.049700
     19 H6          -1.0710    -2.0130     3.6740 hn         1 4AV       0.356800
     20 H8          -1.0270    -0.6070     6.2360 h1         1 4AV       0.035033
     21 H9          -1.2600    -2.3500     6.0450 h1         1 4AV       0.035033
     22 H10         -2.4610    -1.2220     5.4010 h1         1 4AV       0.035033
@<TRIPOS>BOND
     1    11    12 1   
     2    11    10 1   
     3    12    13 1   
     4    10     8 ar  
     5    10     5 ar  
     6     9     5 1   
     7     8     1 ar  
     8     5     3 ar  
     9     7     4 1   
    10     1     4 1   
    11     1     2 ar  
    12     4     6 1   
    13     3     2 ar  
    14     2    14 1   
    15     3    15 1   
    16     8    16 1   
    17    11    17 1   
    18    11    18 1   
    19    12    19 1   
    20    13    20 1   
    21    13    21 1   
    22    13    22 1   
@<TRIPOS>SUBSTRUCTURE
     1 4AV         1 TEMP              0 ****  ****    0 ROOT
