@<TRIPOS>MOLECULE
4AX
   14    14     1     0     0
SMALL
bcc


@<TRIPOS>ATOM
      1 OG           0.0000     0.0000     0.0000 o          1 4AX      -0.564500
      2 O            3.3230     0.0000     0.9620 os         1 4AX      -0.269900
      3 N            1.0410     1.2650     2.6730 nz         1 4AX       0.109400
      4 NXT          2.2890     0.0000     0.0000 ns         1 4AX      -0.003400
      5 CA           1.2780    -0.0560     2.0780 c3         1 4AX      -0.235500
      6 CB           2.7660    -0.4560     2.2090 c3         1 4AX       0.226400
      7 C3           1.0660    -0.0150     0.5780 c          1 4AX       0.567500
      8 H            1.6520     1.9360     2.2500 hn         1 4AX       0.229133
      9 HN2          0.0900     1.5360     2.5160 hn         1 4AX       0.229133
     10 HXT          2.4420     0.0100    -0.9890 hn         1 4AX       0.246500
     11 HA           0.6420    -0.8070     2.5310 hx         1 4AX       0.126700
     12 HB1          2.8670    -1.5300     2.3030 h1         1 4AX       0.054700
     13 HB2          3.2280     0.0560     3.0450 h1         1 4AX       0.054700
     14 HN3          1.2070     1.2220     3.6590 hn         1 4AX       0.229133
@<TRIPOS>BOND
     1     1     7 2   
     2     2     4 1   
     3     2     6 1   
     4     3     5 1   
     5     3     8 1   
     6     3     9 1   
     7     3    14 1   
     8     4     7 1   
     9     4    10 1   
    10     5     6 1   
    11     5     7 1   
    12     5    11 1   
    13     6    12 1   
    14     6    13 1   
@<TRIPOS>SUBSTRUCTURE
     1 4AX         1 TEMP              0 ****  ****    0 ROOT
