@<TRIPOS>MOLECULE
molecule
   14    14     1     0     0
SMALL
bcc


@<TRIPOS>ATOM
      1 OG           0.0000     0.0000     0.0000 o          1 4AX      -0.523500
      2 O            3.3230     0.0000     0.9620 os         1 4AX      -0.168900
      3 N            1.0410     1.2650     2.6730 nz         1 4AX      -0.797600
      4 NXT          2.2890     0.0000     0.0000 ns         1 4AX      -0.433400
      5 CA           1.2780    -0.0560     2.0780 c3         1 4AX      -0.035500
      6 CB           2.7660    -0.4560     2.2090 c3         1 4AX       0.099400
      7 C3           1.0660    -0.0150     0.5780 c          1 4AX       0.666500
      8 H            1.6520     1.9360     2.2500 hn         1 4AX       0.466800
      9 HN2          0.0900     1.5360     2.5160 hn         1 4AX       0.466800
     10 HXT          2.4420     0.0100    -0.9890 hn         1 4AX       0.421500
     11 HA           0.6420    -0.8070     2.5310 hx         1 4AX       0.154700
     12 HB1          2.8670    -1.5300     2.3030 h1         1 4AX       0.108200
     13 HB2          3.2280     0.0560     3.0450 h1         1 4AX       0.108200
     14 HN3          1.2070     1.2220     3.6590 hn         1 4AX       0.466800
@<TRIPOS>BOND
     1     1     7 2
     2     2     4 1
     3     2     6 1
     4     3     5 1
     5     3     8 1
     6     3     9 1
     7     4     7 1
     8     4    10 1
     9     5     6 1
    10     5     7 1
    11     5    11 1
    12     6    12 1
    13     6    13 1
    14    14     3 1
@<TRIPOS>SUBSTRUCTURE
     1 4AX         1 TEMP              0 ****  ****    0 ROOT
