@<TRIPOS>MOLECULE
molecule
   17    17     1     0     0
SMALL
bcc


@<TRIPOS>ATOM
      1 C4           0.0000     0.0000     0.0000 ca         1 4AY      -0.089600
      2 C5           1.3970     0.0000     0.0000 ca         1 4AY      -0.103000
      3 C6           2.0830     0.0000     1.1960 ca         1 4AY      -0.141000
      4 C7          -0.7420    -0.0060    -1.2770 c          1 4AY       0.880200
      5 O1          -0.0710    -0.0060    -2.4460 o          1 4AY      -0.835300
      6 O           -1.9570    -0.0110    -1.2740 o          1 4AY      -0.835300
      7 C3          -0.6910     0.0000     1.2120 ca         1 4AY      -0.103000
      8 C2           0.0080     0.0060     2.4020 ca         1 4AY      -0.141000
      9 C1           1.3920    -0.0010     2.3940 ca         1 4AY      -0.134300
     10 C            2.1490    -0.0020     3.6970 c3         1 4AY       0.077300
     11 H1           1.9380     0.0680    -0.9360 ha         1 4AY       0.152500
     12 H2           3.1660     0.0000     1.1970 ha         1 4AY       0.108000
     13 H4          -1.7730     0.0590     1.2190 ha         1 4AY       0.152500
     14 H5          -0.5280     0.0150     3.3440 ha         1 4AY       0.108000
     15 H6           3.0950    -0.5130     3.5650 h1         1 4AY       0.062200
     16 H7           1.5650    -0.5130     4.4540 h1         1 4AY       0.062200
     17 Br1          2.4780     1.8510     4.2650 br         1 4AY      -0.221400
@<TRIPOS>BOND
     1    10     9 1   
     2     3     9 ar  
     3     3     2 ar  
     4     9     8 ar  
     5     2     1 ar  
     6     8     7 ar  
     7     1     7 ar  
     8     1     4 1   
     9     6     4 1   
    10     4     5 1   
    11     2    11 1   
    12     3    12 1   
    13     7    13 1   
    14     8    14 1   
    15    10    15 1   
    16    10    16 1   
    17    10    17 1   
@<TRIPOS>SUBSTRUCTURE
     1 4AY         1 TEMP              0 ****  ****    0 ROOT
