@<TRIPOS>MOLECULE
molecule
   20    20     1     0     0
SMALL
bcc


@<TRIPOS>ATOM
      1 C            0.0000     0.0000     0.0000 c          1 4AZ       0.865200
      2 OXT          1.2150     0.0000     0.0000 o          1 4AZ      -0.798300
      3 C1          -0.7380     0.0000     1.2790 ca         1 4AZ      -0.034600
      4 N1          -3.1270     1.3830     5.4040 nz         1 4AZ      -0.811600
      5 C2          -2.1350     0.0000     1.2830 ca         1 4AZ      -0.095000
      6 C3          -2.8190    -0.0060     2.4800 ca         1 4AZ      -0.129000
      7 C4          -2.1240    -0.0020     3.6770 ca         1 4AZ      -0.239300
      8 C5          -0.7400     0.0050     3.6810 ca         1 4AZ      -0.129000
      9 C6          -0.0430     0.0050     2.4900 ca         1 4AZ      -0.095000
     10 C7          -2.8770    -0.0030     4.9830 c3         1 4AZ       0.163100
     11 O           -0.6730    -0.0040    -1.1660 o          1 4AZ      -0.798300
     12 HN1         -2.2550     1.8590     5.5220 hn         1 4AZ       0.444467
     13 HN1A        -3.6710     1.8510     4.7060 hn         1 4AZ       0.444467
     14 H2          -2.6800    -0.0040     0.3470 ha         1 4AZ       0.177000
     15 H3          -3.9020    -0.0090     2.4840 ha         1 4AZ       0.109500
     16 H5          -0.2020     0.0080     4.6210 ha         1 4AZ       0.109500
     17 H6           1.0400     0.0100     2.4950 ha         1 4AZ       0.177000
     18 H7          -3.8210    -0.5180     4.8550 hx         1 4AZ       0.097200
     19 H7A         -2.2890    -0.5090     5.7390 hx         1 4AZ       0.097200
     20 H13         -3.6270     1.3820     6.2720 hn         1 4AZ       0.444467
@<TRIPOS>BOND
     1    11     1 1   
     2     1     3 1   
     3     1     2 1   
     4     9     3 ar  
     5     3     5 ar  
     6     4    10 1   
     7     4    12 1   
     8     4    13 1   
     9     5     6 ar  
    10     5    14 1   
    11     7     6 ar  
    12     6    15 1   
    13     8     7 ar  
    14     7    10 1   
    15     9     8 ar  
    16     8    16 1   
    17     9    17 1   
    18    10    18 1   
    19    10    19 1   
    20    20     4 1   
@<TRIPOS>SUBSTRUCTURE
     1 4AZ         1 TEMP              0 ****  ****    0 ROOT
