@<TRIPOS>MOLECULE
4B0
   24    24     1     0     0
SMALL
bcc


@<TRIPOS>ATOM
      1 OAA        -1.4520   -0.0040   -0.0080 oh        1 4B0     -0.794000
      2 BRAC        4.8960    5.3340    3.9370 br        1 4B0     -0.022100
      3 BRAD        5.0990    1.1210    7.7330 br        1 4B0     -0.007100
      4 BRAE        4.4920    3.2320    1.4990 br        1 4B0     -0.034100
      5 CAF         1.8330    0.4110    0.4310 c2        1 4B0     -0.181000
      6 CAG         2.5550   -0.3300    1.2680 c2        1 4B0     -0.219200
      7 CAH         4.0260   -0.1350    1.4610 c3        1 4B0      0.080500
      8 NAI         4.6260   -0.6220    4.9240 nc        1 4B0     -0.191400
      9 NAJ         4.4470   -1.0030    3.7370 nd        1 4B0     -0.119400
     10 CAK         4.9520    3.0700    5.6460 ca        1 4B0     -0.026900
     11 CAL         4.8180    3.5000    4.3060 ca        1 4B0      0.037100
     12 CAM         4.9070    1.7150    5.9800 ca        1 4B0      0.080100
     13 CAN         4.6310    2.6040    3.2500 ca        1 4B0     -0.004900
     14 CAO         4.7110    0.8020    4.9430 ca        1 4B0      0.026400
     15 CAP         4.5630    1.2400    3.5670 ca        1 4B0     -0.030200
     16 NAQ         4.4290    0.0340    2.8490 na        1 4B0      0.070900
     17 HOAA       -2.0620    0.5020    0.5360 ho        1 4B0      0.398000
     18 HAF        -1.9610   -0.7790   -0.2610 ho        1 4B0      0.398000
     19 HAFA        0.7590    0.2260    0.2630 ha        1 4B0      0.131000
     20 HAG         2.2560    1.2440   -0.1460 ha        1 4B0      0.131000
     21 HAGA        2.1080   -1.1580    1.8430 ha        1 4B0      0.140000
     22 HAH         4.5630   -1.0470    1.0620 h1        1 4B0      0.081700
     23 HAHA        4.3930    0.7690    0.8940 h1        1 4B0      0.081700
     24 BRAB        5.1990    4.3330    7.0010 br        1 4B0     -0.024100
@<TRIPOS>BOND
     1    1   17 1   
     2    1   18 1   
     3    2   11 1   
     4    3   12 1   
     5    4   13 1   
     6    5    6 2   
     7    5   19 1   
     8    5   20 1   
     9    6    7 1   
    10    6   21 1   
    11    7   16 1   
    12    7   22 1   
    13    7   23 1   
    14    8    9 2   
    15    8   14 1   
    16    9   16 1   
    17   10   11 ar  
    18   10   12 ar  
    19   10   24 1   
    20   11   13 ar  
    21   12   14 ar  
    22   13   15 ar  
    23   14   15 ar  
    24   15   16 1   
@<TRIPOS>SUBSTRUCTURE
     1 4B0         1 TEMP              0 ****  ****    0 ROOT
