@<TRIPOS>MOLECULE
molecule
   24    25     1     0     0
SMALL
bcc


@<TRIPOS>ATOM
      1 OAA          0.0000     0.0000     0.0000 oh         1 4B0      -0.603800
      2 BrAC         4.4120     5.2070     4.1190 br         1 4B0      -0.022100
      3 BrAD         5.6190     0.8600     7.5290 br         1 4B0      -0.021100
      4 BrAE         3.5650     3.1490     1.7260 br         1 4B0      -0.052100
      5 CAF          1.4290     0.0000     0.0000 c3         1 4B0       0.146400
      6 CAG          1.9380     0.0000     1.4430 c3         1 4B0      -0.106400
      7 CAH          3.4680    -0.0000     1.4440 c3         1 4B0       0.058300
      8 NAI          4.6450    -0.7430     4.7740 nc         1 4B0      -0.191400
      9 NAJ          4.2360    -1.1250     3.6160 nd         1 4B0      -0.117400
     10 CAK          4.9450     2.8500     5.6290 ca         1 4B0      -0.019900
     11 CAL          4.5130     3.3400     4.4020 ca         1 4B0       0.051100
     12 CAM          5.0260     1.5060     5.8530 ca         1 4B0       0.089100
     13 CAN          4.1550     2.4730     3.3910 ca         1 4B0      -0.005900
     14 CAO          4.6700     0.6040     4.8410 ca         1 4B0       0.041400
     15 CAP          4.2300     1.1000     3.6010 ca         1 4B0      -0.046200
     16 NAQ          3.9560    -0.0010     2.8250 na         1 4B0       0.073900
     17 HOAA        -0.3140     0.0000    -0.8890 ho         1 4B0       0.407000
     18 HAF          1.7900     0.8850    -0.5110 h1         1 4B0       0.021700
     19 HAFA         1.7900    -0.8850    -0.5110 h1         1 4B0       0.021700
     20 HAG          1.5770    -0.8840     1.9530 hc         1 4B0       0.072700
     21 HAGA         1.5770     0.8850     1.9530 hc         1 4B0       0.072700
     22 HAH          3.8300     0.8840     0.9340 h1         1 4B0       0.079700
     23 HAHA         3.8300    -0.8850     0.9330 h1         1 4B0       0.079700
     24 BrAB         5.4290     4.0580     7.0000 br         1 4B0      -0.027100
@<TRIPOS>BOND
     1     1     5 1
     2    24    10 1
     3     2    11 1
     4     3    12 1
     5     4    13 1
     6     5     6 1
     7     6     7 1
     8     7    16 1
     9     8     9 2
    10     8    14 1
    11     9    16 1
    12    10    11 ar
    13    10    12 ar
    14    11    13 ar
    15    12    14 ar
    16    13    15 ar
    17    14    15 ar
    18    15    16 1
    19     1    17 1
    20     5    18 1
    21     5    19 1
    22     6    20 1
    23     6    21 1
    24     7    22 1
    25     7    23 1
@<TRIPOS>SUBSTRUCTURE
     1 4B0         1 TEMP              0 ****  ****    0 ROOT
