@<TRIPOS>MOLECULE
molecule
   37    39     1     0     0
SMALL
bcc


@<TRIPOS>ATOM
      1 C7           0.0000     0.0000     0.0000 ca         1 4B2      -0.153300
      2 C1           0.0030     0.0000     2.4010 cp         1 4B2      -0.074000
      3 C5           1.3860     0.0000     0.0000 ca         1 4B2       0.173900
      4 C4           2.0830     0.0000     1.1960 ca         1 4B2      -0.189000
      5 C2           1.3980     0.0000     2.3970 ca         1 4B2       0.192900
      6 F3           2.0780     0.0010     3.5650 f          1 4B2      -0.107900
      7 F6           2.0580     0.0000    -1.1720 f          1 4B2      -0.128900
      8 C8          -0.6930    -0.0010     1.1940 ca         1 4B2      -0.057000
      9 C9          -0.7520     0.0050    -1.3060 c3         1 4B2       0.218500
     10 C10         -0.3460    -1.2290    -2.1150 c3         1 4B2      -0.090100
     11 C11         -0.3670     1.2550    -2.0900 c3         1 4B2      -0.122400
     12 C12         -1.1930     1.3070    -3.3830 c3         1 4B2       0.006700
     13 S13         -2.9070     1.6890    -2.9330 ss         1 4B2      -0.203300
     14 C14         -3.1290     0.5450    -1.6150 c2         1 4B2       0.471100
     15 N15         -2.1700    -0.0650    -1.0280 n2         1 4B2      -0.581900
     16 N16         -4.4130     0.2920    -1.1910 nz         1 4B2      -0.737600
     17 C17         -0.7390    -0.0010     3.6860 cp         1 4B2      -0.316600
     18 C18         -0.4290    -0.9190     4.6930 ca         1 4B2       0.477700
     19 N19         -1.1140    -0.8840     5.8230 nb         1 4B2      -0.726000
     20 C20         -2.0750    -0.0020     6.0060 ca         1 4B2       0.697900
     21 N21         -2.3990     0.8810     5.0820 nb         1 4B2      -0.726000
     22 C22         -1.7610     0.9200     3.9260 ca         1 4B2       0.477700
     23 H1           3.1670    -0.0000     1.1910 ha         1 4B2       0.183000
     24 H2          -1.7760    -0.0010     1.1920 ha         1 4B2       0.141000
     25 H3          -0.1990    -2.0680    -1.4450 hc         1 4B2       0.067033
     26 H4          -1.1280    -1.4680    -2.8250 hc         1 4B2       0.067033
     27 H5           0.5750    -1.0260    -2.6460 hc         1 4B2       0.067033
     28 H6          -0.5750     2.1350    -1.4930 hc         1 4B2       0.098200
     29 H7           0.6870     1.2180    -2.3360 hc         1 4B2       0.098200
     30 H8          -0.8050     2.0810    -4.0330 h1         1 4B2       0.109700
     31 H9          -1.1520     0.3460    -3.8810 h1         1 4B2       0.109700
     32 H10         -4.7710     1.0950    -0.7130 hn         1 4B2       0.471800
     33 H11         -4.9920     0.0880    -1.9820 hn         1 4B2       0.471800
     34 H12          0.3600    -1.6470     4.5500 h4         1 4B2       0.032600
     35 H13         -2.6180    -0.0040     6.9430 h5         1 4B2       0.074100
     36 H14         -2.0330     1.6490     3.1720 h4         1 4B2       0.032600
     37 H163        -4.4070    -0.4780    -0.5520 hn         1 4B2       0.471800
@<TRIPOS>BOND
     1     6     5 1
     2     4     5 ar
     3     4     3 ar
     4     5     2 ar
     5     7     3 1
     6     3     1 ar
     7     2    17 1
     8     2     8 ar
     9    22    17 ar
    10    22    21 ar
    11     1     8 ar
    12     1     9 1
    13    17    18 ar
    14    10     9 1
    15    21    20 ar
    16    18    19 ar
    17     9    11 1
    18     9    15 1
    19    20    19 ar
    20    11    12 1
    21    15    14 2
    22    12    13 1
    23    14    13 1
    24    14    16 1
    25     4    23 1
    26     8    24 1
    27    10    25 1
    28    10    26 1
    29    10    27 1
    30    11    28 1
    31    11    29 1
    32    12    30 1
    33    12    31 1
    34    16    32 1
    35    16    33 1
    36    18    34 1
    37    20    35 1
    38    22    36 1
    39    37    16 1
@<TRIPOS>SUBSTRUCTURE
     1 4B2         1 TEMP              0 ****  ****    0 ROOT
