@<TRIPOS>MOLECULE
4B3
   57    59     1     0     0
SMALL
bcc


@<TRIPOS>ATOM
      1 S1         -0.3910    0.0990    0.7700 ss        1 4B3      0.025200
      2 C2          1.1620    0.5770    0.3770 cc        1 4B3     -0.170700
      3 C3          1.9800    0.5940    1.4980 cd        1 4B3      0.137100
      4 C4          1.2520    0.2050    2.6880 cd        1 4B3     -0.043900
      5 C5         -0.0810   -0.0790    2.4050 cc        1 4B3     -0.155100
      6 C6          1.4410    0.9210   -1.0730 c         1 4B3      0.939200
      7 O7          1.4880    2.1390   -1.3940 o         1 4B3     -0.817800
      8 O8          1.5280   -0.0350   -1.8940 o         1 4B3     -0.817800
      9 C9         -1.1260   -0.4640    3.3220 ca        1 4B3      0.076000
     10 C10        -1.3560    0.2610    4.4980 ca        1 4B3     -0.161000
     11 C11        -2.4020   -0.0880    5.3770 ca        1 4B3      0.088600
     12 C12        -3.2300   -1.1810    5.0500 ca        1 4B3     -0.172000
     13 C13        -3.0020   -1.8950    3.8770 ca        1 4B3     -0.126000
     14 C14        -1.9650   -1.5500    3.0180 ca        1 4B3     -0.152000
     15 BR1         2.0080    0.0500    4.3780 br        1 4B3     -0.100100
     16 O20         3.2990    0.8970    1.6450 os        1 4B3     -0.286900
     17 C21         4.0090    1.2940    0.4590 c3        1 4B3      0.005400
     18 C22         5.4710    1.5640    0.8950 c         1 4B3      0.918600
     19 O25         5.7610    2.7020    1.3620 o         1 4B3     -0.851300
     20 O26         6.3230    0.6480    0.7100 o         1 4B3     -0.851300
     21 N27        -2.5720    0.5970    6.6140 nh        1 4B3     -0.699600
     22 C28        -3.8590    1.2700    6.7850 c3        1 4B3      0.183500
     23 C30        -4.0510    1.6960    8.2470 c3        1 4B3     -0.085900
     24 C31        -5.4360    2.2830    8.5040 c3        1 4B3     -0.045000
     25 C32        -5.7750    3.3840    7.4990 c3        1 4B3     -0.057400
     26 C33        -5.4310    3.1300    6.0320 c3        1 4B3     -0.045000
     27 C34        -4.0500    2.5000    5.8860 c3        1 4B3     -0.085900
     28 C42        -5.4250    2.9160    9.8990 c3        1 4B3     -0.086350
     29 C46        -6.4910    1.1870    8.5150 c3        1 4B3     -0.086350
     30 C50        -5.4080    4.4850    5.3190 c3        1 4B3     -0.086350
     31 C54        -6.4860    2.2750    5.3440 c3        1 4B3     -0.086350
     32 H10        -0.6970    1.1150    4.7270 ha        1 4B3      0.149000
     33 H12        -4.0480   -1.4800    5.7190 ha        1 4B3      0.115000
     34 H13        -3.6500   -2.7490    3.6320 ha        1 4B3      0.111000
     35 H14        -1.7900   -2.1240    2.0950 ha        1 4B3      0.141000
     36 H211        3.5360    2.2190    0.0390 h1        1 4B3      0.053700
     37 H212        3.9580    0.4650   -0.2920 h1        1 4B3      0.053700
     38 HN27       -1.8200    1.2460    6.7620 hn        1 4B3      0.370800
     39 H28        -4.6560    0.5120    6.5240 h1        1 4B3      0.060700
     40 H301       -3.2760    2.4630    8.5120 hc        1 4B3      0.049950
     41 H302       -3.9000    0.8130    8.9220 hc        1 4B3      0.049950
     42 H321       -6.8710    3.6140    7.5770 hc        1 4B3      0.032700
     43 H322       -5.2190    4.3090    7.8180 hc        1 4B3      0.032700
     44 H341       -3.2720    3.2680    6.1440 hc        1 4B3      0.049950
     45 H342       -3.8930    2.2080    4.8140 hc        1 4B3      0.049950
     46 H421       -6.4240    3.3560   10.1280 hc        1 4B3      0.031783
     47 H422       -5.1860    2.1440   10.6690 hc        1 4B3      0.031783
     48 H423       -4.6560    3.7240    9.9580 hc        1 4B3      0.031783
     49 H461       -7.5080    1.6290    8.6440 hc        1 4B3      0.031783
     50 H462       -6.3010    0.4820    9.3620 hc        1 4B3      0.031783
     51 H463       -6.4780    0.5990    7.5680 hc        1 4B3      0.031783
     52 H501       -4.6450    5.1580    5.7770 hc        1 4B3      0.031783
     53 H502       -6.4080    4.9750    5.3940 hc        1 4B3      0.031783
     54 H503       -5.1540    4.3460    4.2410 hc        1 4B3      0.031783
     55 H541       -6.4650    1.2240    5.7130 hc        1 4B3      0.031783
     56 H542       -6.2980    2.2560    4.2420 hc        1 4B3      0.031783
     57 H543       -7.5040    2.6970    5.5240 hc        1 4B3      0.031783
@<TRIPOS>BOND
     1    1    2 1   
     2    1    5 1   
     3    2    3 2   
     4    2    6 1   
     5    3    4 1   
     6    3   16 1   
     7    4    5 2   
     8    4   15 1   
     9    5    9 1   
    10    6    7 1   
    11    6    8 1   
    12    9   10 ar  
    13    9   14 ar  
    14   10   11 ar  
    15   10   32 1   
    16   11   12 ar  
    17   11   21 1   
    18   12   13 ar  
    19   12   33 1   
    20   13   14 ar  
    21   13   34 1   
    22   14   35 1   
    23   16   17 1   
    24   17   18 1   
    25   17   36 1   
    26   17   37 1   
    27   18   19 1   
    28   18   20 1   
    29   21   22 1   
    30   21   38 1   
    31   22   23 1   
    32   22   27 1   
    33   22   39 1   
    34   23   24 1   
    35   23   40 1   
    36   23   41 1   
    37   24   25 1   
    38   24   28 1   
    39   24   29 1   
    40   25   26 1   
    41   25   42 1   
    42   25   43 1   
    43   26   27 1   
    44   26   30 1   
    45   26   31 1   
    46   27   44 1   
    47   27   45 1   
    48   28   46 1   
    49   28   47 1   
    50   28   48 1   
    51   29   49 1   
    52   29   50 1   
    53   29   51 1   
    54   30   52 1   
    55   30   53 1   
    56   30   54 1   
    57   31   55 1   
    58   31   56 1   
    59   31   57 1   
@<TRIPOS>SUBSTRUCTURE
     1 4B3         1 TEMP              0 ****  ****    0 ROOT
