@<TRIPOS>MOLECULE
4B7
   67    71     1     0     0
SMALL
bcc


@<TRIPOS>ATOM
      1 O1           0.0000     0.0000     0.0000 o          1 4B7      -0.636100
      2 C1           1.2180     0.0000     0.0000 c          1 4B7       0.640700
      3 N1           1.8910     0.0000     1.1680 ns         1 4B7      -0.021100
      4 C2           1.1920     0.0780     2.3780 ca         1 4B7      -0.094400
      5 C13          1.8090     0.6110     3.5030 ca         1 4B7      -0.119500
      6 C12          1.1190     0.6870     4.6970 ca         1 4B7      -0.097500
      7 C5          -0.1890     0.2320     4.7730 ca         1 4B7       0.086100
      8 O2          -0.8680     0.3080     5.9490 os         1 4B7      -0.220200
      9 C6          -0.6300    -0.6470     6.8860 ca         1 4B7       0.146100
     10 C11          0.3790    -1.5790     6.6870 ca         1 4B7      -0.171500
     11 C10          0.6190    -2.5480     7.6410 ca         1 4B7      -0.061000
     12 C9          -0.1440    -2.5920     8.7930 ca         1 4B7      -0.144000
     13 C8          -1.1510    -1.6640     8.9940 ca         1 4B7      -0.061000
     14 C7          -1.3910    -0.6880     8.0450 ca         1 4B7      -0.171500
     15 C4          -0.8060    -0.3000     3.6500 ca         1 4B7      -0.097500
     16 C3          -0.1190    -0.3720     2.4540 ca         1 4B7      -0.119500
     17 C14          1.9500    -0.0080    -1.2660 cc         1 4B7      -0.248000
     18 C15          1.3960    -0.0090    -2.5160 cd         1 4B7       0.487200
     19 N2           2.2740    -0.0170    -3.4870 nd         1 4B7      -0.589000
     20 C16          3.5330    -0.0210    -3.1530 cc         1 4B7       0.551300
     21 S            3.7010    -0.0090    -1.4520 ss         1 4B7      -0.328300
     22 N3           4.5840    -0.0300    -4.0480 nu         1 4B7      -0.345600
     23 C17          4.3370     0.0730    -5.4110 ca         1 4B7       0.513200
     24 C27          5.3800    -0.0160    -6.3260 ca         1 4B7      -0.436600
     25 C20          5.0800     0.0930    -7.6820 ca         1 4B7       0.559200
     26 N5           3.8140     0.2780    -8.0500 nb         1 4B7      -0.695000
     27 C18          2.8530     0.3570    -7.1510 ca         1 4B7       0.654300
     28 C19          1.4340     0.5670    -7.6140 c3         1 4B7      -0.034400
     29 N4           3.0960     0.2540    -5.8610 nb         1 4B7      -0.634000
     30 N6           6.0840     0.0110    -8.6330 nh         1 4B7      -0.466300
     31 C26          5.5370     0.1530    -9.9900 c3         1 4B7       0.143800
     32 C25          6.6630    -0.0230   -11.0120 c3         1 4B7       0.147800
     33 N7           7.7090     0.9790   -10.7620 n3         1 4B7      -0.523600
     34 C22          8.2560     0.8370    -9.4050 c3         1 4B7       0.147800
     35 C21          7.1300     1.0120    -8.3830 c3         1 4B7       0.143800
     36 C23          8.7730     0.8910   -11.7700 c3         1 4B7       0.144800
     37 C24          8.2970     1.5400   -13.0720 c3         1 4B7       0.223400
     38 O3           7.8630     2.8760   -12.8060 oh         1 4B7      -0.573800
     39 H2           2.8900    -0.0640     1.1700 hn         1 4B7       0.172500
     40 H11          2.8300     0.9670     3.4440 ha         1 4B7       0.137500
     41 H10          1.5990     1.1030     5.5740 ha         1 4B7       0.117500
     42 H9           0.9780    -1.5460     5.7850 ha         1 4B7       0.121000
     43 H8           1.4060    -3.2760     7.4860 ha         1 4B7       0.100500
     44 H7           0.0450    -3.3550     9.5390 ha         1 4B7       0.104000
     45 H6          -1.7460    -1.6980     9.8980 ha         1 4B7       0.100500
     46 H5          -2.1790     0.0380     8.2020 ha         1 4B7       0.121000
     47 H4          -1.8280    -0.6530     3.7100 ha         1 4B7       0.117500
     48 H3          -0.6000    -0.7880     1.5770 ha         1 4B7       0.137500
     49 H12          0.3270    -0.0050    -2.6880 h4         1 4B7       0.019100
     50 H13          5.5230    -0.1340    -3.7170 hn         1 4B7       0.292800
     51 H30          6.4000    -0.1670    -5.9940 ha         1 4B7       0.134000
     52 H14          0.8700    -0.3480    -7.4740 hc         1 4B7       0.021033
     53 H15          1.4330     0.8350    -8.6630 hc         1 4B7       0.021033
     54 H16          0.9800     1.3630    -7.0360 hc         1 4B7       0.021033
     55 H28          5.0990     1.1370   -10.1010 h1         1 4B7       0.030450
     56 H29          4.7800    -0.6050   -10.1540 h1         1 4B7       0.030450
     57 H27          6.2660     0.1120   -12.0110 h1         1 4B7       0.015700
     58 H26          7.0850    -1.0160   -10.9160 h1         1 4B7       0.015700
     59 H19          8.6930    -0.1480    -9.2950 h1         1 4B7       0.015700
     60 H20          9.0130     1.5940    -9.2410 h1         1 4B7       0.015700
     61 H17          7.5260     0.8770    -7.3840 h1         1 4B7       0.030450
     62 H18          6.7080     2.0050    -8.4790 h1         1 4B7       0.030450
     63 H22          9.0130    -0.1490   -11.9530 h1         1 4B7       0.013700
     64 H21          9.6550     1.4070   -11.4110 h1         1 4B7       0.013700
     65 H23          9.1130     1.5610   -13.7840 h1         1 4B7      -0.014300
     66 H24          7.4740     0.9680   -13.4810 h1         1 4B7      -0.014300
     67 H25          7.8490     3.3670   -13.6110 ho         1 4B7       0.382000
@<TRIPOS>BOND
     1     1     2 2   
     2     2     3 1   
     3     2    17 1   
     4     3     4 1   
     5     3    39 1   
     6     4     5 ar  
     7     4    16 ar  
     8     5     6 ar  
     9     5    40 1   
    10     6     7 ar  
    11     6    41 1   
    12     7     8 1   
    13     7    15 ar  
    14     8     9 1   
    15     9    10 ar  
    16     9    14 ar  
    17    10    11 ar  
    18    10    42 1   
    19    11    12 ar  
    20    11    43 1   
    21    12    13 ar  
    22    12    44 1   
    23    13    14 ar  
    24    13    45 1   
    25    14    46 1   
    26    15    16 ar  
    27    15    47 1   
    28    16    48 1   
    29    17    18 2   
    30    17    21 1   
    31    18    19 1   
    32    18    49 1   
    33    19    20 2   
    34    20    21 1   
    35    20    22 1   
    36    22    23 1   
    37    22    50 1   
    38    23    24 ar  
    39    23    29 ar  
    40    24    25 ar  
    41    24    51 1   
    42    25    26 ar  
    43    25    30 1   
    44    26    27 ar  
    45    27    28 1   
    46    27    29 ar  
    47    28    52 1   
    48    28    53 1   
    49    28    54 1   
    50    30    31 1   
    51    30    35 1   
    52    31    32 1   
    53    31    55 1   
    54    31    56 1   
    55    32    33 1   
    56    32    57 1   
    57    32    58 1   
    58    33    34 1   
    59    33    36 1   
    60    34    35 1   
    61    34    59 1   
    62    34    60 1   
    63    35    61 1   
    64    35    62 1   
    65    36    37 1   
    66    36    63 1   
    67    36    64 1   
    68    37    38 1   
    69    37    65 1   
    70    37    66 1   
    71    38    67 1   
@<TRIPOS>SUBSTRUCTURE
     1 4B7         1 TEMP              0 ****  ****    0 ROOT
