@<TRIPOS>MOLECULE
4B8
   29    31     1     0     0
SMALL
bcc


@<TRIPOS>ATOM
      1 CAI         0.0380   -0.0870   -0.0010 ca        1 4B8     -0.049500
      2 CAO         1.4250   -0.1220    0.1450 ca        1 4B8     -0.047600
      3 CLAC        2.3980   -0.1550   -1.2500 cl        1 4B8     -0.062900
      4 CAS         2.0140   -0.1290    1.4260 ca        1 4B8      0.166100
      5 OAB         3.3660   -0.1630    1.6320 oh        1 4B8     -0.469100
      6 CAP         1.1820   -0.1010    2.5680 ca        1 4B8     -0.047600
      7 CLAD        1.8320   -0.1090    4.1350 cl        1 4B8     -0.062900
      8 CAJ        -0.2030   -0.0670    2.4170 ca        1 4B8     -0.049500
      9 CAR        -0.7770   -0.0600    1.1380 ca        1 4B8     -0.154500
     10 CAU        -2.2140   -0.0240    0.9850 cc        1 4B8      0.510900
     11 OAM        -3.0140    0.0030    2.1440 os        1 4B8     -0.391800
     12 NAL        -3.0170   -0.0090   -0.1030 nd        1 4B8     -0.338000
     13 NAK        -4.2770    0.0250    0.2860 nd        1 4B8     -0.351000
     14 CAT        -4.3280    0.0340    1.6390 cc        1 4B8      0.532900
     15 CAQ        -5.4280    0.0670    2.5740 ca        1 4B8     -0.182500
     16 CAG        -6.7460    0.0980    2.0930 ca        1 4B8     -0.048500
     17 CAE        -7.8130    0.1310    2.9860 ca        1 4B8     -0.195500
     18 CAN        -7.5590    0.1320    4.3660 ca        1 4B8      0.153100
     19 OAA        -8.5600    0.1620    5.3040 oh        1 4B8     -0.489100
     20 CAF        -6.2410    0.1000    4.8580 ca        1 4B8     -0.195500
     21 CAH        -5.1850    0.0680    3.9580 ca        1 4B8     -0.048500
     22 H1         -0.4120   -0.0820   -1.0080 ha        1 4B8      0.172500
     23 H2          3.8100   -0.1790    0.7670 ho        1 4B8      0.439000
     24 H3         -0.8550   -0.0450    3.3070 ha        1 4B8      0.172500
     25 H4         -6.9410    0.0980    1.0080 ha        1 4B8      0.156000
     26 H5         -8.8460    0.1550    2.6120 ha        1 4B8      0.151000
     27 H6         -9.4100    0.1820    4.8400 ho        1 4B8      0.425000
     28 H7         -6.0670    0.1020    5.9430 ha        1 4B8      0.151000
     29 H8         -4.1480    0.0440    4.3290 ha        1 4B8      0.156000
@<TRIPOS>BOND
     1    1    2 ar  
     2    1    9 ar  
     3    1   22 1   
     4    2    3 1   
     5    2    4 ar  
     6    4    5 1   
     7    4    6 ar  
     8    5   23 1   
     9    6    7 1   
    10    6    8 ar  
    11    8    9 ar  
    12    8   24 1   
    13    9   10 1   
    14   10   11 1   
    15   10   12 2   
    16   11   14 1   
    17   12   13 1   
    18   13   14 2   
    19   14   15 1   
    20   15   16 ar  
    21   15   21 ar  
    22   16   17 ar  
    23   16   25 1   
    24   17   18 ar  
    25   17   26 1   
    26   18   19 1   
    27   18   20 ar  
    28   19   27 1   
    29   20   21 ar  
    30   20   28 1   
    31   21   29 1   
@<TRIPOS>SUBSTRUCTURE
     1 4B8         1 TEMP              0 ****  ****    0 ROOT
