@<TRIPOS>MOLECULE
4BA
   27    27     1     0     0
SMALL
bcc


@<TRIPOS>ATOM
      1 N4C          0.0000     0.0000     0.0000 n7         1 4BA      -0.590200
      2 C5C          1.4690     0.0000     0.0000 c3         1 4BA       0.140800
      3 C6C          1.9800     0.0000     1.4420 c3         1 4BA      -0.133400
      4 C7C          3.4870    -0.0000     1.4410 c          1 4BA       0.983600
      5 O8C          4.1590    -0.0010     2.6030 o          1 4BA      -0.915300
      6 O9C          4.0910    -0.0010     0.3950 o          1 4BA      -0.915300
      7 C1D         -1.9270     0.0010    -1.4780 ca         1 4BA      -0.111300
      8 C2D         -2.6150     1.2020    -1.5110 ca         1 4BA      -0.131000
      9 C3D         -3.9920     1.2090    -1.5770 ca         1 4BA      -0.080500
     10 C4D         -4.6940     0.0030    -1.6110 ca         1 4BA      -0.116600
     11 C5D         -3.9930    -1.2050    -1.5770 ca         1 4BA      -0.080500
     12 C6D         -2.6150    -1.1980    -1.5160 ca         1 4BA      -0.131000
     13 C7D         -0.4230     0.0010    -1.4060 c3         1 4BA       0.200100
     14 C           -6.1690     0.0040    -1.6810 c          1 4BA       0.982200
     15 O           -6.7750     1.0550    -1.7100 o          1 4BA      -0.899300
     16 O2          -6.8420    -1.1620    -1.7130 o          1 4BA      -0.899300
     17 HN4         -0.3340    -0.8300     0.4480 hn         1 4BA       0.248800
     18 H15          1.8300     0.8840    -0.5110 h1         1 4BA       0.010700
     19 H25          1.8300    -0.8840    -0.5110 h1         1 4BA       0.010700
     20 H16          1.6190    -0.8840     1.9530 hc         1 4BA       0.009700
     21 H26          1.6190     0.8850     1.9530 hc         1 4BA       0.009700
     22 HC2         -2.0700     2.1370    -1.4830 ha         1 4BA       0.089000
     23 HC3         -4.5290     2.1500    -1.6030 ha         1 4BA       0.117000
     24 HC5         -4.5310    -2.1450    -1.6050 ha         1 4BA       0.117000
     25 HC6         -2.0710    -2.1340    -1.4900 ha         1 4BA       0.089000
     26 H17         -0.0380     0.8860    -1.8980 h1         1 4BA      -0.001300
     27 H27         -0.0380    -0.8830    -1.9000 h1         1 4BA      -0.001300
@<TRIPOS>BOND
     1     1     2 1   
     2     1    13 1   
     3     1    17 1   
     4     2     3 1   
     5     2    18 1   
     6     2    19 1   
     7     3     4 1   
     8     3    20 1   
     9     3    21 1   
    10     4     5 1   
    11     4     6 1   
    12     7     8 ar  
    13     7    12 ar  
    14     7    13 1   
    15     8     9 ar  
    16     8    22 1   
    17     9    10 ar  
    18     9    23 1   
    19    10    11 ar  
    20    10    14 1   
    21    11    12 ar  
    22    11    24 1   
    23    12    25 1   
    24    13    26 1   
    25    13    27 1   
    26    14    15 1   
    27    14    16 1   
@<TRIPOS>SUBSTRUCTURE
     1 4BA         1 TEMP              0 ****  ****    0 ROOT
