@<TRIPOS>MOLECULE
molecule
   43    44     1     0     0
SMALL
bcc


@<TRIPOS>ATOM
      1 CAA          0.0000     0.0000     0.0000 c3         1 4BB      -0.081100
      2 CAY          1.5300     0.0000     0.0000 c3         1 4BB      -0.029700
      3 CAB          2.0410     0.0000     1.4430 c3         1 4BB      -0.081100
      4 CAC          2.0400    -1.2500    -0.7210 c3         1 4BB      -0.081100
      5 CAW          2.0330     1.2290    -0.7110 ca         1 4BB      -0.043300
      6 CAM          1.6970     2.4850    -0.2360 ca         1 4BB      -0.137500
      7 CAK          2.1540     3.6150    -0.8820 ca         1 4BB      -0.083500
      8 CAL          2.8320     1.0980    -1.8320 ca         1 4BB      -0.137500
      9 CAJ          3.2960     2.2200    -2.4880 ca         1 4BB      -0.083500
     10 CAS          2.9560     3.4890    -2.0180 ca         1 4BB      -0.154600
     11 CAQ          3.4490     4.6960    -2.7160 c          1 4BB       0.691700
     12 OAD          3.1550     5.8000    -2.3010 o          1 4BB      -0.555100
     13 NAP          4.2240     4.5710    -3.8120 ns         1 4BB      -0.355900
     14 NAO          4.6900     5.7150    -4.4720 n2         1 4BB      -0.368300
     15 CAI          5.4370     5.5950    -5.5290 ce         1 4BB       0.370800
     16 CAT          5.9280     6.7970    -6.2230 ca         1 4BB      -0.154900
     17 CAN          6.7310     6.6710    -7.3600 ca         1 4BB      -0.039000
     18 CAR          7.1890     7.7990    -8.0080 ca         1 4BB      -0.082900
     19 BrAG         8.2750     7.6270    -9.5460 br         1 4BB      -0.067100
     20 CAU          6.8520     9.0630    -7.5350 ca         1 4BB       0.194100
     21 OAE          7.3070    10.1690    -8.1790 oh         1 4BB      -0.501100
     22 CAX          6.0550     9.1980    -6.4070 ca         1 4BB      -0.138900
     23 BrAH         5.6020    10.9210    -5.7710 br         1 4BB      -0.059100
     24 CAV          5.5860     8.0730    -5.7510 ca         1 4BB       0.208100
     25 OAF          4.8010     8.2040    -4.6510 oh         1 4BB      -0.449100
     26 HAA         -0.3610     0.7880     0.6500 hc         1 4BB       0.038478
     27 HAAA        -0.3610    -0.9570     0.3570 hc         1 4BB       0.038478
     28 HAAB        -0.3610     0.1690    -1.0070 hc         1 4BB       0.038478
     29 HAB          3.1100     0.1700     1.4470 hc         1 4BB       0.038478
     30 HABA         1.8250    -0.9570     1.9020 hc         1 4BB       0.038478
     31 HABB         1.5470     0.7870     2.0000 hc         1 4BB       0.038478
     32 HAC          3.1230    -1.2520    -0.7190 hc         1 4BB       0.038478
     33 HACA         1.6810    -1.2490    -1.7430 hc         1 4BB       0.038478
     34 HACB         1.6760    -2.1340    -0.2110 hc         1 4BB       0.038478
     35 HAM          1.0750     2.5810     0.6450 ha         1 4BB       0.140500
     36 HAK          1.8890     4.5980    -0.5110 ha         1 4BB       0.140000
     37 HAL          3.0950     0.1120    -2.1960 ha         1 4BB       0.140500
     38 HAJ          3.9200     2.1160    -3.3670 ha         1 4BB       0.140000
     39 HNAP         4.4950     3.6630    -4.1320 hn         1 4BB       0.298500
     40 HAI          5.6980     4.6110    -5.8990 h4         1 4BB      -0.011200
     41 HAN          6.9800     5.6880    -7.7410 ha         1 4BB       0.154000
     42 HOAE         8.1330    10.4310    -7.8070 ho         1 4BB       0.437000
     43 HOAF         4.2070     8.9260    -4.7730 ho         1 4BB       0.435000
@<TRIPOS>BOND
     1     1     2 1
     2     2     3 1
     3     2     4 1
     4     2     5 1
     5     5     6 ar
     6     5     8 ar
     7     6     7 ar
     8     7    10 ar
     9     8     9 ar
    10     9    10 ar
    11    10    11 1
    12    11    12 2
    13    11    13 1
    14    13    14 1
    15    14    15 2
    16    15    16 1
    17    16    17 ar
    18    16    24 ar
    19    17    18 ar
    20    18    19 1
    21    18    20 ar
    22    20    21 1
    23    20    22 ar
    24    22    23 1
    25    22    24 ar
    26    24    25 1
    27     1    26 1
    28     1    27 1
    29     1    28 1
    30     3    29 1
    31     3    30 1
    32     3    31 1
    33     4    32 1
    34     4    33 1
    35     4    34 1
    36     6    35 1
    37     7    36 1
    38     8    37 1
    39     9    38 1
    40    13    39 1
    41    15    40 1
    42    17    41 1
    43    21    42 1
    44    25    43 1
@<TRIPOS>SUBSTRUCTURE
     1 4BB         1 TEMP              0 ****  ****    0 ROOT
