@<TRIPOS>MOLECULE
4BB
   43    45     1     0     0
SMALL
bcc


@<TRIPOS>ATOM
      1 CAA          0.0000     0.0000     0.0000 c3         1 4BB      -0.112333
      2 CAY          1.5300     0.0000     0.0000 c3         1 4BB      -0.028000
      3 CAB          2.0410     0.0000     1.4430 c3         1 4BB      -0.112333
      4 CAC          2.0400    -1.2500    -0.7210 c3         1 4BB      -0.112333
      5 CAW          2.0330     1.2290    -0.7110 ca         1 4BB      -0.039000
      6 CAM          1.6970     2.4850    -0.2360 ca         1 4BB      -0.118500
      7 CAK          2.1540     3.6150    -0.8820 ca         1 4BB      -0.052000
      8 CAL          2.8320     1.0980    -1.8320 ca         1 4BB      -0.118500
      9 CAJ          3.2960     2.2200    -2.4880 ca         1 4BB      -0.052000
     10 CAS          2.9560     3.4890    -2.0180 ca         1 4BB      -0.154000
     11 CAQ          3.4490     4.6960    -2.7160 c2         1 4BB       0.272000
     12 OAD          3.1550     5.8000    -2.3010 o          1 4BB      -0.355000
     13 NAP          4.2240     4.5710    -3.8120 ns         1 4BB       0.092000
     14 NAO          4.6900     5.7150    -4.4720 n2         1 4BB       0.053000
     15 CAI          5.4370     5.5950    -5.5290 c2         1 4BB      -0.476000
     16 CAT          5.9280     6.7970    -6.2230 c3         1 4BB      -0.162000
     17 CAN          6.7310     6.6710    -7.3600 c2         1 4BB       0.042000
     18 CAR          7.1890     7.7990    -8.0080 c2         1 4BB      -0.212000
     19 BrAG         8.2750     7.6270    -9.5460 br         1 4BB       0.056000
     20 CAU          6.8520     9.0630    -7.5350 c2         1 4BB       0.186000
     21 OAE          7.3070    10.1690    -8.1790 oh         1 4BB      -0.236000
     22 CAX          6.0550     9.1980    -6.4070 c2         1 4BB      -0.269000
     23 BrAH         5.6020    10.9210    -5.7710 br         1 4BB       0.068000
     24 CAV          5.5860     8.0730    -5.7510 c2         1 4BB       0.148000
     25 OAF          4.8010     8.2040    -4.6510 oh         1 4BB      -0.195000
     26 HAA         -0.3610    -0.9590     0.3520 hc         1 4BB       0.047667
     27 HAAA        -0.3610     0.7840     0.6550 hc         1 4BB       0.047667
     28 HAAB        -0.3610     0.1750    -1.0060 hc         1 4BB       0.047667
     29 HAB          3.1120     0.1590     1.4470 hc         1 4BB       0.047667
     30 HABA         1.8150    -0.9530     1.9050 hc         1 4BB       0.047667
     31 HABB         1.5560     0.7940     1.9970 hc         1 4BB       0.047667
     32 HAC          3.1230    -1.2520    -0.7180 hc         1 4BB       0.047667
     33 HACA         1.6760    -2.1340    -0.2120 hc         1 4BB       0.047667
     34 HACB         1.6810    -1.2480    -1.7430 hc         1 4BB       0.047667
     35 HAM          1.0750     2.5810     0.6450 ha         1 4BB       0.119500
     36 HAK          1.8890     4.5980    -0.5110 ha         1 4BB       0.115000
     37 HAL          3.0950     0.1120    -2.1960 ha         1 4BB       0.119500
     38 HAJ          3.9200     2.1160    -3.3670 ha         1 4BB       0.115000
     39 HNAP         4.4300     3.6630    -4.1780 hn         1 4BB       0.092000
     40 HAI          6.2690     6.2010    -5.1900 DU         1 4BB       0.322000
     41 HAN          6.9540     5.6890    -7.7590 ha         1 4BB       0.138000
     42 HOAE         8.1490    10.4110    -7.8310 ho         1 4BB       0.216000
     43 HOAF         4.2240     8.9420    -4.7620 ho         1 4BB       0.221000
@<TRIPOS>BOND
     1     1     2 1   
     2     1    26 1   
     3     1    27 1   
     4     1    28 1   
     5     2     3 1   
     6     2     4 1   
     7     2     5 1   
     8     3    29 1   
     9     3    30 1   
    10     3    31 1   
    11     4    32 1   
    12     4    33 1   
    13     4    34 1   
    14     5     6 1   
    15     5     8 1   
    16     6     7 1   
    17     6    35 1   
    18     7    10 1   
    19     7    36 1   
    20     8     9 1   
    21     8    37 1   
    22     9    10 1   
    23     9    38 1   
    24    10    11 1   
    25    11    12 1   
    26    11    13 1   
    27    13    14 1   
    28    13    39 1   
    29    14    15 1   
    30    15    16 1   
    31    15    40 1   
    32    16    17 1   
    33    16    24 1   
    34    16    40 1   
    35    17    18 1   
    36    17    41 1   
    37    18    19 1   
    38    18    20 1   
    39    20    21 1   
    40    20    22 1   
    41    21    42 1   
    42    22    23 1   
    43    22    24 1   
    44    24    25 1   
    45    25    43 1   
@<TRIPOS>SUBSTRUCTURE
     1 4BB         1 TEMP              0 ****  ****    0 ROOT
