@<TRIPOS>MOLECULE
molecule
   42    45     1     0     0
SMALL
bcc


@<TRIPOS>ATOM
      1 C15          0.0000     0.0000     0.0000 ca         1 4BC      -0.067000
      2 C12          1.3830     0.0000     0.0000 ca         1 4BC       0.039100
      3 O17          2.2870     0.0000     1.0230 os         1 4BC      -0.336900
      4 C19          3.5360    -0.4050     0.4330 c3         1 4BC       0.332200
      5 O18          3.4170     0.0140    -0.9390 os         1 4BC      -0.345900
      6 C16          2.0790     0.0080    -1.2080 ca         1 4BC       0.022100
      7 C22          1.3860     0.0100    -2.4090 ca         1 4BC      -0.122000
      8 C20          0.0060     0.0050    -2.4140 ca         1 4BC      -0.114000
      9 C8          -0.6950    -0.0030    -1.2080 ca         1 4BC       0.060000
     10 C4          -2.1750    -0.0100    -1.2130 cc         1 4BC      -0.237300
     11 C1          -3.0220    -1.0350    -0.7880 cd         1 4BC      -0.107900
     12 C7          -2.6240    -2.3390    -0.2470 c          1 4BC       0.898200
     13 O21         -3.5660    -3.2340     0.1170 o          1 4BC      -0.820300
     14 O23         -1.4460    -2.6130    -0.1260 o          1 4BC      -0.820300
     15 N5          -4.2980    -0.5830    -0.9830 na         1 4BC       0.050400
     16 C2          -3.0420     1.0260    -1.6390 cc         1 4BC       0.347800
     17 N3          -4.2760     0.6030    -1.4730 nd         1 4BC      -0.552800
     18 C6          -2.6320     2.3430    -2.1820 ca         1 4BC      -0.108500
     19 C10         -1.6570     3.0930    -1.5300 ca         1 4BC      -0.063000
     20 C14         -1.2770     4.3190    -2.0380 ca         1 4BC      -0.126300
     21 C26         -0.2210     5.1300    -1.3320 c3         1 4BC      -0.025100
     22 C27          1.1580     4.7610    -1.8840 c3         1 4BC      -0.086100
     23 C13         -1.8710     4.8110    -3.1920 ca         1 4BC       0.127100
     24 O25         -1.4920     6.0190    -3.6860 oh         1 4BC      -0.513100
     25 C11         -2.8390     4.0680    -3.8490 ca         1 4BC      -0.273000
     26 C9          -3.2260     2.8380    -3.3480 ca         1 4BC       0.153100
     27 O24         -4.1790     2.1110    -3.9870 oh         1 4BC      -0.484100
     28 H15         -0.5420    -0.0060     0.9380 ha         1 4BC       0.153000
     29 H191         4.3550     0.1220     0.9080 h2         1 4BC       0.057700
     30 H192         3.6340    -1.4830     0.4820 h2         1 4BC       0.057700
     31 H22          1.9290     0.0160    -3.3470 ha         1 4BC       0.125000
     32 H20         -0.5330     0.0020    -3.3540 ha         1 4BC       0.141000
     33 HN5         -5.1290    -1.1010    -0.7730 hn         1 4BC       0.344700
     34 H10         -1.2460     2.7470    -0.5900 ha         1 4BC       0.156000
     35 H261        -0.2530     4.9180    -0.2700 hc         1 4BC       0.043200
     36 H262        -0.4050     6.1840    -1.4960 hc         1 4BC       0.043200
     37 H271         1.7400     5.6620    -2.0320 hc         1 4BC       0.035700
     38 H272         1.0420     4.2460    -2.8300 hc         1 4BC       0.035700
     39 H273         1.6670     4.1130    -1.1800 hc         1 4BC       0.035700
     40 H25         -2.2590     6.5260    -3.8990 ho         1 4BC       0.409000
     41 H11         -3.2990     4.4540    -4.7500 ha         1 4BC       0.126000
     42 H24         -4.8930     2.6770    -4.2330 ho         1 4BC       0.409000
@<TRIPOS>BOND
     1     1     2 ar
     2     1     9 ar
     3     1    28 1
     4     2     3 1
     5     2     6 ar
     6     3     4 1
     7     4     5 1
     8     4    29 1
     9     4    30 1
    10     5     6 1
    11     6     7 ar
    12     7     8 ar
    13     7    31 1
    14     8     9 ar
    15     8    32 1
    16     9    10 1
    17    10    11 2
    18    10    16 1
    19    11    12 1
    20    11    15 1
    21    12    13 1
    22    12    14 1
    23    15    17 1
    24    15    33 1
    25    16    17 2
    26    16    18 1
    27    18    19 ar
    28    18    26 ar
    29    19    20 ar
    30    19    34 1
    31    20    21 1
    32    20    23 ar
    33    21    22 1
    34    21    35 1
    35    21    36 1
    36    22    37 1
    37    22    38 1
    38    22    39 1
    39    23    24 1
    40    23    25 ar
    41    24    40 1
    42    25    26 ar
    43    25    41 1
    44    26    27 1
    45    27    42 1
@<TRIPOS>SUBSTRUCTURE
     1 4BC         1 TEMP              0 ****  ****    0 ROOT
