@<TRIPOS>MOLECULE
4BC
   42    45     1     0     0
SMALL
bcc


@<TRIPOS>ATOM
      1 C15         0.1360   -0.5330   -0.1120 ca        1 4BC     -0.083000
      2 C12         1.4950   -0.5470   -0.3450 ca        1 4BC      0.039100
      3 O17         2.5180   -0.9800    0.5040 os        1 4BC     -0.334900
      4 C19         3.7550   -0.8040   -0.2120 c3        1 4BC      0.322200
      5 O18         3.4550   -0.2270   -1.5010 os        1 4BC     -0.352900
      6 C16         2.0660   -0.0880   -1.5580 ca        1 4BC      0.023100
      7 C22         1.2860    0.3980   -2.5850 ca        1 4BC     -0.127000
      8 C20        -0.0990    0.4220   -2.3560 ca        1 4BC     -0.144000
      9 C8         -0.6750   -0.0180   -1.1530 ca        1 4BC      0.040000
     10 C4         -2.1040    0.0600   -0.9810 cc        1 4BC     -0.229300
     11 C1         -2.9850   -0.8560   -0.3550 cd        1 4BC     -0.088900
     12 C7         -2.8450   -2.1790    0.3960 c         1 4BC      0.935200
     13 O21        -3.8230   -2.9710    0.3020 o         1 4BC     -0.806800
     14 O23        -1.8120   -2.3760    1.0830 o         1 4BC     -0.806800
     15 N5         -4.2640   -0.3190   -0.5340 na        1 4BC      0.000400
     16 C2         -2.9730    1.1150   -1.4960 cc        1 4BC      0.340800
     17 N3         -4.2790    0.8260   -1.2050 nd        1 4BC     -0.534800
     18 C6         -2.5720    2.3400   -2.1710 ca        1 4BC     -0.130500
     19 C10        -1.8010    3.2900   -1.4970 ca        1 4BC     -0.050000
     20 C14        -1.4150    4.4960   -2.0920 ca        1 4BC     -0.141300
     21 C26        -0.5990    5.4790   -1.3290 c3        1 4BC     -0.021100
     22 C27         0.8150    4.9960   -1.1100 c3        1 4BC     -0.090100
     23 C13        -1.8310    4.7490   -3.4100 ca        1 4BC      0.148100
     24 O25        -1.4540    5.9480   -3.9810 oh        1 4BC     -0.505100
     25 C11        -2.6040    3.8210   -4.1190 ca        1 4BC     -0.312000
     26 C9         -2.9700    2.6200   -3.4960 ca        1 4BC      0.170100
     27 O24        -3.7150    1.6720   -4.1540 oh        1 4BC     -0.467100
     28 H15        -0.3200   -0.9400    0.8100 ha        1 4BC      0.219000
     29 H191        4.2260   -1.8060   -0.3700 h2        1 4BC      0.051700
     30 H192        4.4000   -0.0900    0.3560 h2        1 4BC      0.051700
     31 H22         1.7160    0.7450   -3.5310 ha        1 4BC      0.134000
     32 H20        -0.7590    0.8000   -3.1520 ha        1 4BC      0.138000
     33 HN5        -5.1060   -0.7910   -0.2880 hn        1 4BC      0.328700
     34 H10        -1.4840    3.0780   -0.4620 ha        1 4BC      0.154000
     35 H261       -0.5790    6.4610   -1.8730 hc        1 4BC      0.045200
     36 H262       -1.0870    5.6600   -0.3320 hc        1 4BC      0.045200
     37 H271        1.3840    5.7410   -0.5020 hc        1 4BC      0.034367
     38 H272        0.8180    4.0180   -0.5710 hc        1 4BC      0.034367
     39 H273        1.3400    4.8600   -2.0860 hc        1 4BC      0.034367
     40 H25        -1.8100    5.9680   -4.8800 ho        1 4BC      0.409000
     41 H11        -2.9210    4.0320   -5.1480 ha        1 4BC      0.123000
     42 H24        -3.9410    2.0260   -5.0270 ho        1 4BC      0.404000
@<TRIPOS>BOND
     1    1    2 ar  
     2    1    9 ar  
     3    1   28 1   
     4    2    3 1   
     5    2    6 ar  
     6    3    4 1   
     7    4    5 1   
     8    4   29 1   
     9    4   30 1   
    10    5    6 1   
    11    6    7 ar  
    12    7    8 ar  
    13    7   31 1   
    14    8    9 ar  
    15    8   32 1   
    16    9   10 1   
    17   10   11 2   
    18   10   16 1   
    19   11   12 1   
    20   11   15 1   
    21   12   13 1   
    22   12   14 1   
    23   15   17 1   
    24   15   33 1   
    25   16   17 2   
    26   16   18 1   
    27   18   19 ar  
    28   18   26 ar  
    29   19   20 ar  
    30   19   34 1   
    31   20   21 1   
    32   20   23 ar  
    33   21   22 1   
    34   21   35 1   
    35   21   36 1   
    36   22   37 1   
    37   22   38 1   
    38   22   39 1   
    39   23   24 1   
    40   23   25 ar  
    41   24   40 1   
    42   25   26 ar  
    43   25   41 1   
    44   26   27 1   
    45   27   42 1   
@<TRIPOS>SUBSTRUCTURE
     1 4BC         1 TEMP              0 ****  ****    0 ROOT
