@<TRIPOS>MOLECULE
molecule
   44    45     1     0     0
SMALL
bcc


@<TRIPOS>ATOM
      1 PA           0.0000     0.0000     0.0000 p5         1 4BD       1.131600
      2 O1A          1.6090     0.0000     0.0000 o          1 4BD      -0.778000
      3 O2A         -0.4940     0.0000     1.3950 o          1 4BD      -0.778000
      4 C3A         -0.6080     1.4880    -0.8600 c3         1 4BD       0.101200
      5 F1A         -0.1410     1.4880    -2.1780 f          1 4BD      -0.277300
      6 F2A         -2.0070     1.4880    -0.8600 f          1 4BD      -0.277300
      7 O5'         -0.5370    -1.3150    -0.7590 os         1 4BD      -0.582200
      8 PB          -0.0010     2.9770    -0.0010 p5         1 4BD       1.242600
      9 O1B          1.4790     2.9760    -0.0000 o          1 4BD      -0.808000
     10 O2B         -0.5380     2.9760     1.5180 o          1 4BD      -0.808000
     11 O3B         -0.5380     4.2910    -0.7590 os         1 4BD      -0.722800
     12 PG          -0.3650     5.8730    -0.5140 p5         1 4BD       1.336900
     13 O1G         -1.5390     6.6660    -1.2780 o          1 4BD      -0.848500
     14 O2G         -0.4380     6.1590     0.9350 o          1 4BD      -0.848500
     15 O3G          1.0640     6.3510    -1.0840 o          1 4BD      -0.848500
     16 C5'         -0.3190    -2.6390    -0.2700 c3         1 4BD       0.235400
     17 C4'         -0.9570    -3.6480    -1.2270 c3         1 4BD       0.140100
     18 O4'         -0.2460    -3.6770    -2.4840 os         1 4BD      -0.350600
     19 C1'         -0.5460    -4.9370    -3.1070 c3         1 4BD       0.317500
     20 N1           0.6190    -5.4100    -3.8580 n          1 4BD      -0.341000
     21 C6           0.4840    -5.7460    -5.1780 cc         1 4BD      -0.073400
     22 C2           1.8140    -5.5040    -3.2470 c          1 4BD       0.807500
     23 O2           1.9140    -5.1960    -2.0750 o          1 4BD      -0.648500
     24 N3           2.9010    -5.9370    -3.9140 ns         1 4BD      -0.568500
     25 C4           2.8060    -6.2820    -5.2140 c          1 4BD       0.698700
     26 O4           3.7900    -6.6730    -5.8180 o          1 4BD      -0.725500
     27 C5           1.5570    -6.1810    -5.8710 cd         1 4BD      -0.343400
     28 C5M          1.4260    -6.5570    -7.3250 c3         1 4BD       0.016100
     29 C2'         -0.8840    -5.9350    -1.9810 c3         1 4BD      -0.155400
     30 C3'         -0.7970    -5.0920    -0.6840 c3         1 4BD       0.106100
     31 O3'         -1.8590    -5.4250     0.2120 oh         1 4BD      -0.604800
     32 H5'          0.7460    -2.8290    -0.2020 h1         1 4BD       0.037700
     33 H5'A        -0.7660    -2.7400     0.7120 h1         1 4BD       0.037700
     34 H4'         -2.0030    -3.4190    -1.3900 h1         1 4BD       0.059700
     35 H1'         -1.3980    -4.8260    -3.7670 h2         1 4BD       0.052700
     36 H6          -0.4810    -5.6620    -5.6640 h4         1 4BD       0.134000
     37 HN3          3.7820    -6.0010    -3.4440 hn         1 4BD       0.340500
     38 H5M          1.7580    -7.5790    -7.4660 hc         1 4BD       0.016033
     39 H5MA         0.3910    -6.4690    -7.6300 hc         1 4BD       0.016033
     40 H5MB         2.0370    -5.8930    -7.9260 hc         1 4BD       0.016033
     41 H2'         -1.8860    -6.3250    -2.1110 hc         1 4BD       0.043200
     42 H2'A        -0.1570    -6.7380    -1.9580 hc         1 4BD       0.043200
     43 H3'          0.1690    -5.2170    -0.2110 h1         1 4BD       0.074700
     44 HO3'        -1.5340    -6.0000     0.8850 ho         1 4BD       0.383000
@<TRIPOS>BOND
     1     7     1 1
     2     4     1 1
     3     1     3 1
     4     1     2 1
     5     5     4 1
     6     8     4 1
     7     4     6 1
     8    16     7 1
     9     9     8 1
    10     8    10 1
    11     8    11 1
    12    11    12 1
    13    12    14 1
    14    12    13 1
    15    12    15 1
    16    17    16 1
    17    16    32 1
    18    16    33 1
    19    30    17 1
    20    18    17 1
    21    17    34 1
    22    19    18 1
    23    29    19 1
    24    19    20 1
    25    19    35 1
    26    22    20 1
    27    20    21 1
    28    21    27 2
    29    21    36 1
    30    23    22 2
    31    22    24 1
    32    24    25 1
    33    24    37 1
    34    25    26 2
    35    25    27 1
    36    27    28 1
    37    28    38 1
    38    28    39 1
    39    28    40 1
    40    29    30 1
    41    29    41 1
    42    29    42 1
    43    31    30 1
    44    30    43 1
    45    31    44 1
@<TRIPOS>SUBSTRUCTURE
     1 4BD         1 TEMP              0 ****  ****    0 ROOT
