@<TRIPOS>MOLECULE
molecule
   31    32     1     0     0
SMALL
bcc


@<TRIPOS>ATOM
      1 CAJ          0.0000     0.0000     0.0000 ca         1 4BE      -0.085000
      2 CAH          1.3790     0.0000     0.0000 ca         1 4BE      -0.112000
      3 CAP          2.0750     0.0000     1.1980 ca         1 4BE       0.002100
      4 BrAD         3.9660    -0.0000     1.1890 br         1 4BE      -0.084100
      5 CAI          1.3910     0.0000     2.4020 ca         1 4BE      -0.112000
      6 CAK          0.0120    -0.0010     2.4150 ca         1 4BE      -0.085000
      7 CAU         -0.6950     0.0000     1.2110 ca         1 4BE      -0.136600
      8 CAO         -2.1720     0.0010     1.2190 c          1 4BE       0.688700
      9 OAA         -2.7850     0.0010     0.1680 o          1 4BE      -0.551100
     10 NAN         -2.8400     0.0010     2.3890 ns         1 4BE      -0.354900
     11 NAM         -4.2410     0.0010     2.3960 n2         1 4BE      -0.370300
     12 CAG         -4.8860     0.0020     3.5230 ce         1 4BE       0.376800
     13 CAT         -6.3580     0.0020     3.5310 ca         1 4BE      -0.155900
     14 CAL         -7.0530     0.0020     4.7420 ca         1 4BE      -0.039000
     15 CAQ         -8.4330     0.0030     4.7450 ca         1 4BE      -0.079900
     16 BrAE        -9.3720     0.0040     6.3860 br         1 4BE      -0.065100
     17 CAR         -9.1340     0.0050     3.5450 ca         1 4BE       0.193100
     18 OAB        -10.4930     0.0060     3.5560 oh         1 4BE      -0.501100
     19 CAV         -8.4520     0.0050     2.3360 ca         1 4BE      -0.135900
     20 BrAF        -9.4140     0.0070     0.7080 br         1 4BE      -0.057100
     21 CAS         -7.0680     0.0090     2.3210 ca         1 4BE       0.206100
     22 OAC         -6.4000     0.0140     1.1380 oh         1 4BE      -0.453100
     23 HAJ         -0.5430     0.0000    -0.9370 ha         1 4BE       0.147000
     24 HAH          1.9190     0.0000    -0.9390 ha         1 4BE       0.150000
     25 HAI          1.9400    -0.0000     3.3360 ha         1 4BE       0.150000
     26 HAK         -0.5220    -0.0010     3.3580 ha         1 4BE       0.147000
     27 HNAN        -2.3360     0.0010     3.2530 hn         1 4BE       0.298500
     28 HAG         -4.3400     0.0030     4.4590 h4         1 4BE      -0.011200
     29 HAL         -6.5100    -0.0180     5.6790 ha         1 4BE       0.154000
     30 HOAB       -10.8080    -0.8820     3.5210 ho         1 4BE       0.437000
     31 HOAC        -6.8130     0.6200     0.5460 ho         1 4BE       0.436000
@<TRIPOS>BOND
     1     1     2 ar  
     2     1     7 ar  
     3     2     3 ar  
     4     3     4 1   
     5     3     5 ar  
     6     5     6 ar  
     7     6     7 ar  
     8     7     8 1   
     9     8     9 2   
    10     8    10 1   
    11    10    11 1   
    12    11    12 2   
    13    12    13 1   
    14    13    14 ar  
    15    13    21 ar  
    16    14    15 ar  
    17    15    16 1   
    18    15    17 ar  
    19    17    18 1   
    20    17    19 ar  
    21    19    20 1   
    22    19    21 ar  
    23    21    22 1   
    24     1    23 1   
    25     2    24 1   
    26     5    25 1   
    27     6    26 1   
    28    10    27 1   
    29    12    28 1   
    30    14    29 1   
    31    18    30 1   
    32    22    31 1   
@<TRIPOS>SUBSTRUCTURE
     1 4BE         1 TEMP              0 ****  ****    0 ROOT
