@<TRIPOS>MOLECULE
4BE
   31    33     1     0     0
SMALL
bcc


@<TRIPOS>ATOM
      1 CAJ          0.0000     0.0000     0.0000 ca         1 4BE      -0.052000
      2 CAH          1.3790     0.0000     0.0000 ca         1 4BE      -0.092500
      3 CAP          2.0750     0.0000     1.1980 ca         1 4BE      -0.085000
      4 BrAD         3.9660    -0.0000     1.1890 br         1 4BE       0.020000
      5 CAI          1.3910     0.0000     2.4020 ca         1 4BE      -0.092500
      6 CAK          0.0120    -0.0010     2.4150 ca         1 4BE      -0.052000
      7 CAU         -0.6950     0.0000     1.2110 ca         1 4BE      -0.139000
      8 CAO         -2.1720     0.0010     1.2190 c2         1 4BE       0.269000
      9 OAA         -2.7850     0.0010     0.1680 o          1 4BE      -0.352000
     10 NAN         -2.8400     0.0010     2.3890 ns         1 4BE       0.094000
     11 NAM         -4.2410     0.0010     2.3960 n2         1 4BE       0.048000
     12 CAG         -4.8860     0.0020     3.5230 c2         1 4BE      -0.465000
     13 CAT         -6.3580     0.0020     3.5310 c3         1 4BE      -0.169000
     14 CAL         -7.0530     0.0020     4.7420 c2         1 4BE       0.046000
     15 CAQ         -8.4330     0.0030     4.7450 c2         1 4BE      -0.212000
     16 BrAE        -9.3720     0.0040     6.3860 br         1 4BE       0.059000
     17 CAR         -9.1340     0.0050     3.5450 c2         1 4BE       0.189000
     18 OAB        -10.4930     0.0060     3.5560 oh         1 4BE      -0.238000
     19 CAV         -8.4520     0.0050     2.3360 c2         1 4BE      -0.274000
     20 BrAF        -9.4140     0.0070     0.7080 br         1 4BE       0.070000
     21 CAS         -7.0680     0.0090     2.3210 c2         1 4BE       0.151000
     22 OAC         -6.4000     0.0140     1.1380 oh         1 4BE      -0.184000
     23 HAJ         -0.5430     0.0000    -0.9370 ha         1 4BE       0.120500
     24 HAH          1.9190     0.0000    -0.9390 ha         1 4BE       0.121000
     25 HAI          1.9400    -0.0000     3.3360 ha         1 4BE       0.121000
     26 HAK         -0.5220    -0.0010     3.3580 ha         1 4BE       0.120500
     27 HNAN        -2.3360     0.0130     3.2530 hn         1 4BE       0.090000
     28 HAG         -5.4980    -0.8720     3.3410 DU         1 4BE       0.321000
     29 HAL         -6.5100     0.0310     5.6780 ha         1 4BE       0.137000
     30 HOAB       -10.8070     0.8940     3.5220 ho         1 4BE       0.219000
     31 HOAC        -6.8840    -0.4840     0.5010 ho         1 4BE       0.211000
@<TRIPOS>BOND
     1     1     2 1   
     2     1     7 1   
     3     1    23 1   
     4     2     3 1   
     5     2    24 1   
     6     3     4 1   
     7     3     5 1   
     8     5     6 1   
     9     5    25 1   
    10     6     7 1   
    11     6    26 1   
    12     7     8 1   
    13     8     9 1   
    14     8    10 1   
    15    10    11 1   
    16    10    27 1   
    17    11    12 1   
    18    12    13 1   
    19    12    28 1   
    20    13    14 1   
    21    13    21 1   
    22    13    28 1   
    23    14    15 1   
    24    14    29 1   
    25    15    16 1   
    26    15    17 1   
    27    17    18 1   
    28    17    19 1   
    29    18    30 1   
    30    19    20 1   
    31    19    21 1   
    32    21    22 1   
    33    22    31 1   
@<TRIPOS>SUBSTRUCTURE
     1 4BE         1 TEMP              0 ****  ****    0 ROOT
