@<TRIPOS>MOLECULE
molecule
   36    37     1     0     0
SMALL
bcc


@<TRIPOS>ATOM
      1 C1           0.0000     0.0000     0.0000 ca         1 4BG      -0.101500
      2 C2           1.3820     0.0000     0.0000 ca         1 4BG      -0.128000
      3 C3           2.0730     0.0000     1.1980 ca         1 4BG      -0.107000
      4 C4           1.3820     0.0000     2.3950 ca         1 4BG      -0.128000
      5 C5          -0.0010     0.0010     2.3940 ca         1 4BG      -0.101500
      6 C6          -0.6920    -0.0010     1.1970 ca         1 4BG      -0.108300
      7 C7          -2.1990    -0.0000     1.1970 c3         1 4BG       0.185700
      8 O8          -2.6750    -1.3470     1.1960 os         1 4BG      -0.310900
      9 C9          -4.0240    -1.5260     1.1960 ca         1 4BG       0.167100
     10 C12         -4.5540    -2.8070     1.1960 ca         1 4BG      -0.173000
     11 C13         -5.9220    -2.9890     1.1950 ca         1 4BG      -0.086000
     12 C10         -4.8680    -0.4250     1.2020 ca         1 4BG      -0.173000
     13 C11         -6.2370    -0.6050     1.2020 ca         1 4BG      -0.086000
     14 C14         -6.7680    -1.8870     1.1950 ca         1 4BG      -0.039400
     15 N15         -8.1570    -2.0710     1.1950 ns         1 4BG      -0.419100
     16 C16         -8.6980    -3.1270     1.8350 c          1 4BG       0.629100
     17 O17         -7.9930    -3.8640     2.4900 o          1 4BG      -0.589100
     18 C18        -10.1790    -3.3910     1.7360 c3         1 4BG       0.009800
     19 N19        -10.5150    -4.5890     2.5160 nz         1 4BG      -0.793600
     20 H1          -0.5410    -0.0010    -0.9380 ha         1 4BG       0.132000
     21 H2           1.9240     0.0000    -0.9380 ha         1 4BG       0.138000
     22 H3           3.1560    -0.0000     1.1990 ha         1 4BG       0.138000
     23 H4           1.9230     0.0010     3.3330 ha         1 4BG       0.138000
     24 H5          -0.5430     0.0010     3.3320 ha         1 4BG       0.132000
     25 H7          -2.5600     0.5100     2.0810 h1         1 4BG       0.043700
     26 H7A         -2.5590     0.5110     0.3120 h1         1 4BG       0.043700
     27 H12         -3.8940    -3.6660     1.1960 ha         1 4BG       0.158500
     28 H13         -6.3360    -3.9900     1.1930 ha         1 4BG       0.142000
     29 H10         -4.4530     0.5760     1.2070 ha         1 4BG       0.158500
     30 H11         -6.8960     0.2550     1.2040 ha         1 4BG       0.142000
     31 HN15        -8.7470    -1.4250     0.7090 hn         1 4BG       0.333500
     32 H18        -10.4500    -3.5470     0.6990 hx         1 4BG       0.125200
     33 H18A       -10.7240    -2.5400     2.1270 hx         1 4BG       0.125200
     34 HN19       -10.2170    -4.4650     3.4630 hn         1 4BG       0.467800
     35 HN1A       -10.0510    -5.3840     2.1220 hn         1 4BG       0.467800
     36 H193       -11.5050    -4.7350     2.4940 hn         1 4BG       0.467800
@<TRIPOS>BOND
     1     1     2 ar  
     2     1     6 ar  
     3     2     3 ar  
     4     3     4 ar  
     5     4     5 ar  
     6     5     6 ar  
     7     6     7 1   
     8     7     8 1   
     9     8     9 1   
    10     9    10 ar  
    11     9    12 ar  
    12    10    11 ar  
    13    11    14 ar  
    14    12    13 ar  
    15    13    14 ar  
    16    14    15 1   
    17    15    16 1   
    18    16    17 2   
    19    16    18 1   
    20    18    19 1   
    21     1    20 1   
    22     2    21 1   
    23     3    22 1   
    24     4    23 1   
    25     5    24 1   
    26     7    25 1   
    27     7    26 1   
    28    10    27 1   
    29    11    28 1   
    30    12    29 1   
    31    13    30 1   
    32    15    31 1   
    33    18    32 1   
    34    18    33 1   
    35    19    34 1   
    36    19    35 1   
    37    36    19 1   
@<TRIPOS>SUBSTRUCTURE
     1 4BG         1 TEMP              0 ****  ****    0 ROOT
