@<TRIPOS>MOLECULE
4BG
   36    37     1     0     0
SMALL
bcc


@<TRIPOS>ATOM
      1 C1           0.0000     0.0000     0.0000 ca         1 4BG      -0.074000
      2 C2           1.3820     0.0000     0.0000 ca         1 4BG      -0.100000
      3 C3           2.0730     0.0000     1.1980 ca         1 4BG      -0.079000
      4 C4           1.3820     0.0000     2.3950 ca         1 4BG      -0.100000
      5 C5          -0.0010     0.0010     2.3940 ca         1 4BG      -0.074000
      6 C6          -0.6920    -0.0010     1.1970 ca         1 4BG      -0.128300
      7 C7          -2.1990    -0.0000     1.1970 c3         1 4BG       0.265700
      8 O8          -2.6750    -1.3470     1.1960 os         1 4BG      -0.289900
      9 C9          -4.0240    -1.5260     1.1960 ca         1 4BG       0.188100
     10 C12         -4.5540    -2.8070     1.1960 ca         1 4BG      -0.159500
     11 C13         -5.9220    -2.9890     1.1950 ca         1 4BG      -0.042000
     12 C10         -4.8680    -0.4250     1.2020 ca         1 4BG      -0.159500
     13 C11         -6.2370    -0.6050     1.2020 ca         1 4BG      -0.042000
     14 C14         -6.7680    -1.8870     1.1950 ca         1 4BG      -0.216400
     15 N15         -8.1570    -2.0710     1.1950 ns         1 4BG       0.087900
     16 C16         -8.6980    -3.1270     1.8350 c          1 4BG       0.515100
     17 O17         -7.9930    -3.8640     2.4900 o          1 4BG      -0.644100
     18 C18        -10.1790    -3.3910     1.7360 c3         1 4BG      -0.134200
     19 N19        -10.5150    -4.5890     2.5160 nz         1 4BG       0.115400
     20 H1          -0.5410    -0.0010    -0.9380 ha         1 4BG       0.104500
     21 H2           1.9240     0.0000    -0.9380 ha         1 4BG       0.109000
     22 H3           3.1560    -0.0000     1.1990 ha         1 4BG       0.108000
     23 H4           1.9230     0.0010     3.3330 ha         1 4BG       0.109000
     24 H5          -0.5430     0.0010     3.3320 ha         1 4BG       0.104500
     25 H7          -2.5600     0.5100     2.0810 h1         1 4BG       0.005700
     26 H7A         -2.5590     0.5110     0.3120 h1         1 4BG       0.005700
     27 H12         -3.8940    -3.6660     1.1960 ha         1 4BG       0.133000
     28 H13         -6.3360    -3.9900     1.1930 ha         1 4BG       0.115000
     29 H10         -4.4530     0.5760     1.2070 ha         1 4BG       0.133000
     30 H11         -6.8960     0.2550     1.2040 ha         1 4BG       0.115000
     31 HN15        -8.7470    -1.4250     0.7090 hn         1 4BG       0.164500
     32 H18        -10.4500    -3.5470     0.6990 hx         1 4BG       0.090700
     33 H18A       -10.7240    -2.5400     2.1270 hx         1 4BG       0.090700
     34 HN19       -10.2170    -4.4650     3.4630 hn         1 4BG       0.227800
     35 HN1A       -10.0510    -5.3840     2.1220 hn         1 4BG       0.227800
     36 H193       -11.5050    -4.7350     2.4940 hn         1 4BG       0.227800
@<TRIPOS>BOND
     1     1     2 ar  
     2     1     6 ar  
     3     1    20 1   
     4     2     3 ar  
     5     2    21 1   
     6     3     4 ar  
     7     3    22 1   
     8     4     5 ar  
     9     4    23 1   
    10     5     6 ar  
    11     5    24 1   
    12     6     7 1   
    13     7     8 1   
    14     7    25 1   
    15     7    26 1   
    16     8     9 1   
    17     9    10 ar  
    18     9    12 ar  
    19    10    11 ar  
    20    10    27 1   
    21    11    14 ar  
    22    11    28 1   
    23    12    13 ar  
    24    12    29 1   
    25    13    14 ar  
    26    13    30 1   
    27    14    15 1   
    28    15    16 1   
    29    15    31 1   
    30    16    17 2   
    31    16    18 1   
    32    18    19 1   
    33    18    32 1   
    34    18    33 1   
    35    19    34 1   
    36    19    35 1   
    37    19    36 1   
@<TRIPOS>SUBSTRUCTURE
     1 4BG         1 TEMP              0 ****  ****    0 ROOT
