@<TRIPOS>MOLECULE
4BH
   35    37     1     0     0
SMALL
bcc


@<TRIPOS>ATOM
      1 Cl           0.0000     0.0000     0.0000 cl         1 4BH       0.004600
      2 C1           1.7360     0.0000     0.0000 ca         1 4BH      -0.104600
      3 C2           2.4280     0.0000     1.2040 ca         1 4BH       0.166100
      4 O2           1.7450    -0.0060     2.3790 oh         1 4BH      -0.489100
      5 C3           3.8160    -0.0000     1.2120 ca         1 4BH      -0.210000
      6 C4           4.5160     0.0060     0.0190 ca         1 4BH       0.166100
      7 O4           5.8750     0.0050     0.0260 oh         1 4BH      -0.476100
      8 C5           2.4240     0.0120    -1.1960 ca         1 4BH      -0.048000
      9 C6           3.8200     0.0120    -1.1970 ca         1 4BH      -0.041000
     10 C7           4.5610     0.0190    -2.4750 cc         1 4BH      -0.230300
     11 N1           4.9520    -1.0760    -3.1940 na         1 4BH       0.462400
     12 N2           5.6230    -0.6230    -4.3360 nc         1 4BH      -0.653800
     13 C8           5.6440     0.6860    -4.3220 cd         1 4BH       0.387200
     14 C9           4.9840     1.1330    -3.1730 cd         1 4BH      -0.182700
     15 N3           4.7910     2.4720    -2.7930 nh         1 4BH      -0.320000
     16 C11          6.1220     3.0900    -2.7360 c3         1 4BH       0.096300
     17 C12          6.0040     4.5210    -2.2090 c3         1 4BH       0.139800
     18 C15          4.2720     2.4530    -1.4210 c3         1 4BH       0.096300
     19 C14          4.1530     3.8830    -0.8940 c3         1 4BH       0.139800
     20 N4           5.4840     4.5000    -0.8370 n7         1 4BH      -0.576200
     21 H2           1.6620    -0.8920     2.6900 ho         1 4BH       0.408000
     22 H3           4.3520    -0.0000     2.1540 ha         1 4BH       0.130000
     23 H4           6.1860    -0.6810     0.5930 ho         1 4BH       0.405000
     24 H5           1.8820     0.0170    -2.1330 ha         1 4BH       0.129000
     25 H1           4.7870    -2.0320    -2.9480 hn         1 4BH       0.145700
     26 H8           6.0950     1.3180    -5.0780 h4         1 4BH       0.010100
     27 H111         6.7570     2.5150    -2.0720 h1         1 4BH       0.037450
     28 H112         6.5540     3.1070    -3.7290 h1         1 4BH       0.037450
     29 H121         6.9820     4.9880    -2.2160 h1         1 4BH       0.011200
     30 H122         5.3270     5.0810    -2.8420 h1         1 4BH       0.011200
     31 H151         4.9490     1.8920    -0.7880 h1         1 4BH       0.037450
     32 H152         3.2940     1.9850    -1.4140 h1         1 4BH       0.037450
     33 H141         3.5180     4.4590    -1.5570 h1         1 4BH       0.011200
     34 H142         3.7220     3.8660     0.1000 h1         1 4BH       0.011200
     35 HA           5.4030     5.4380    -0.4960 hn         1 4BH       0.252800
@<TRIPOS>BOND
     1     1     2 1   
     2     2     3 ar  
     3     2     8 ar  
     4     3     4 1   
     5     3     5 ar  
     6     4    21 1   
     7     5     6 ar  
     8     5    22 1   
     9     6     7 1   
    10     6     9 ar  
    11     7    23 1   
    12     8     9 ar  
    13     8    24 1   
    14     9    10 1   
    15    10    11 1   
    16    10    14 2   
    17    11    12 1   
    18    11    25 1   
    19    12    13 2   
    20    13    14 1   
    21    13    26 1   
    22    14    15 1   
    23    15    16 1   
    24    15    18 1   
    25    16    17 1   
    26    16    27 1   
    27    16    28 1   
    28    17    20 1   
    29    17    29 1   
    30    17    30 1   
    31    18    19 1   
    32    18    31 1   
    33    18    32 1   
    34    19    20 1   
    35    19    33 1   
    36    19    34 1   
    37    20    35 1   
@<TRIPOS>SUBSTRUCTURE
     1 4BH         1 TEMP              0 ****  ****    0 ROOT
