@<TRIPOS>MOLECULE
molecule
   48    50     1     0     0
SMALL
bcc


@<TRIPOS>ATOM
      1 N1           0.0000     0.0000     0.0000 nb         1 4BI      -0.716000
      2 C2           1.3360     0.0000     0.0000 ca         1 4BI       0.419600
      3 C3           2.0440     0.0000     1.2260 ca         1 4BI      -0.146300
      4 C4           1.3130    -0.0010     2.4400 cp         1 4BI      -0.015000
      5 C5          -0.0730    -0.0000     2.3610 ca         1 4BI      -0.113600
      6 C6          -0.6910    -0.0000     1.1150 ca         1 4BI       0.484600
      7 C7           3.4460    -0.0010     1.2190 ca         1 4BI      -0.106000
      8 C8           4.1140    -0.0010     0.0310 ca         1 4BI      -0.153000
      9 C9           3.4210     0.0000    -1.1770 ca         1 4BI      -0.140000
     10 C10          2.0600     0.0010    -1.2060 ca         1 4BI      -0.167300
     11 C11         -0.9050    -0.0010     3.6180 c3         1 4BI       0.062400
     12 C12         -1.4880     1.3700     3.8350 c          1 4BI       0.877600
     13 O13         -0.6800     2.4120     4.0840 o          1 4BI      -0.827300
     14 O14         -2.6850     1.5330     3.7860 o          1 4BI      -0.827300
     15 O15         -1.9630    -0.9540     3.4890 os         1 4BI      -0.411600
     16 C16         -2.3730    -1.5380     4.7270 c3         1 4BI       0.155800
     17 C17         -2.1950    -0.0010     1.0440 c3         1 4BI      -0.153400
     18 C18          2.0040    -0.0020     3.7500 cp         1 4BI      -0.004000
     19 C19          2.7820     1.0910     4.1320 ca         1 4BI      -0.096000
     20 C20          3.4240     1.0850     5.3530 ca         1 4BI      -0.128500
     21 C21          3.2960    -0.0040     6.1990 ca         1 4BI       0.024400
     22 C22          2.5260    -1.0920     5.8250 ca         1 4BI      -0.128500
     23 C23          1.8750    -1.0940     4.6090 ca         1 4BI      -0.096000
     24 Cl           4.1070    -0.0060     7.7330 cl         1 4BI      -0.143400
     25 C25         -2.8670    -0.4380     5.6690 c3         1 4BI      -0.105433
     26 C26         -3.5030    -2.5360     4.4700 c3         1 4BI      -0.105433
     27 C27         -1.1870    -2.2630     5.3670 c3         1 4BI      -0.105433
     28 H7           3.9950    -0.0020     2.1530 ha         1 4BI       0.132000
     29 H8           5.1970    -0.0010     0.0270 ha         1 4BI       0.114000
     30 H9           3.9740     0.0000    -2.1080 ha         1 4BI       0.114000
     31 H10          1.5360     0.0020    -2.1540 ha         1 4BI       0.136000
     32 H11         -0.2820    -0.2660     4.4630 h1         1 4BI       0.053700
     33 H17         -2.5860     0.8100     1.6470 hc         1 4BI       0.067367
     34 H17A        -2.5740    -0.9450     1.4190 hc         1 4BI       0.067367
     35 H17B        -2.5090     0.1300     0.0160 hc         1 4BI       0.067367
     36 H19          2.8230     1.9730     3.5030 ha         1 4BI       0.149500
     37 H20          4.0270     1.9340     5.6510 ha         1 4BI       0.134000
     38 H22          2.4510    -1.9520     6.4800 ha         1 4BI       0.134000
     39 H23          1.3430    -1.9790     4.2810 ha         1 4BI       0.149500
     40 H25         -3.6490     0.1310     5.1810 hc         1 4BI       0.038256
     41 H25A        -3.2590    -0.8870     6.5740 hc         1 4BI       0.038256
     42 H25B        -2.0440     0.2200     5.9200 hc         1 4BI       0.038256
     43 H26         -3.8220    -2.9700     5.4100 hc         1 4BI       0.038256
     44 H26A        -3.1490    -3.3200     3.8120 hc         1 4BI       0.038256
     45 H26B        -4.3380    -2.0250     4.0070 hc         1 4BI       0.038256
     46 H27         -1.5530    -3.0280     6.0410 hc         1 4BI       0.038256
     47 H27A        -0.5840    -2.7220     4.5930 hc         1 4BI       0.038256
     48 H27B        -0.5850    -1.5520     5.9200 hc         1 4BI       0.038256
@<TRIPOS>BOND
     1     1     2 ar
     2     1     6 ar
     3     2     3 ar
     4     2    10 ar
     5     3     4 ar
     6     3     7 ar
     7     4     5 ar
     8     4    18 1
     9     5     6 ar
    10     5    11 1
    11     6    17 1
    12     7     8 ar
    13     7    28 1
    14     8     9 ar
    15     8    29 1
    16     9    10 ar
    17     9    30 1
    18    10    31 1
    19    11    12 1
    20    11    15 1
    21    11    32 1
    22    12    13 1
    23    12    14 1
    24    15    16 1
    25    16    25 1
    26    16    26 1
    27    16    27 1
    28    17    33 1
    29    17    34 1
    30    17    35 1
    31    18    19 ar
    32    18    23 ar
    33    19    20 ar
    34    19    36 1
    35    20    21 ar
    36    20    37 1
    37    21    22 ar
    38    21    24 1
    39    22    23 ar
    40    22    38 1
    41    23    39 1
    42    25    40 1
    43    25    41 1
    44    25    42 1
    45    26    43 1
    46    26    44 1
    47    26    45 1
    48    27    46 1
    49    27    47 1
    50    27    48 1
@<TRIPOS>SUBSTRUCTURE
     1 4BI         1 TEMP              0 ****  ****    0 ROOT
