@<TRIPOS>MOLECULE
4BI
   48    50     1     0     0
SMALL
bcc


@<TRIPOS>ATOM
      1 N1          0.0060   -0.2260   -0.0570 nb        1 4BI     -0.704000
      2 C2          1.3810   -0.1680    0.0030 ca        1 4BI      0.398600
      3 C3          2.0810   -0.0900    1.2430 ca        1 4BI     -0.138300
      4 C4          1.3100   -0.0690    2.4540 cp        1 4BI     -0.023000
      5 C5         -0.0730   -0.0620    2.3840 ca        1 4BI     -0.111600
      6 C6         -0.6910   -0.1690    1.0730 ca        1 4BI      0.483600
      7 C7          3.4980   -0.0210    1.2300 ca        1 4BI     -0.106000
      8 C8          4.1960   -0.0420    0.0470 ca        1 4BI     -0.155000
      9 C9          3.5080   -0.1320   -1.1830 ca        1 4BI     -0.143000
     10 C10         2.1370   -0.1920   -1.2130 ca        1 4BI     -0.172300
     11 C11        -0.9090    0.0790    3.6230 c3        1 4BI      0.043400
     12 C12        -1.4780    1.5330    3.7670 c         1 4BI      0.909600
     13 O13        -0.7340    2.3580    4.3690 o         1 4BI     -0.819800
     14 O14        -2.6240    1.8030    3.3250 o         1 4BI     -0.819800
     15 O15        -1.9480   -0.9070    3.5650 os        1 4BI     -0.414600
     16 C16        -2.4650   -1.3340    4.8320 c3        1 4BI      0.164800
     17 C17        -2.1830   -0.2410    0.9850 c3        1 4BI     -0.177400
     18 C18         2.0440   -0.0750    3.7270 cp        1 4BI     -0.036000
     19 C19         1.9580    1.0020    4.6200 ca        1 4BI     -0.105500
     20 C20         2.6880    0.9890    5.8080 ca        1 4BI     -0.141000
     21 C21         3.5010   -0.1060    6.1090 ca        1 4BI      0.012400
     22 C22         3.5830   -1.1940    5.2370 ca        1 4BI     -0.141000
     23 C23         2.8560   -1.1730    4.0500 ca        1 4BI     -0.105500
     24 CL          4.4020   -0.1230    7.5610 cl        1 4BI     -0.135400
     25 C25        -2.8460   -0.1650    5.7260 c3        1 4BI     -0.110767
     26 C26        -3.7160   -2.1350    4.4640 c3        1 4BI     -0.110767
     27 C27        -1.4640   -2.2460    5.5360 c3        1 4BI     -0.110767
     28 H7          4.0330    0.0590    2.1890 ha        1 4BI      0.136000
     29 H8          5.2930    0.0150    0.0450 ha        1 4BI      0.118000
     30 H9          4.0850   -0.1470   -2.1190 ha        1 4BI      0.116000
     31 H10         1.5980   -0.2530   -2.1710 ha        1 4BI      0.136000
     32 H11        -0.2680   -0.1150    4.5300 h1        1 4BI      0.047700
     33 H17        -2.5540   -0.0910   -0.0580 hc        1 4BI      0.073700
     34 H17A       -2.5150   -1.2460    1.3480 hc        1 4BI      0.073700
     35 H17B       -2.6330    0.5390    1.6580 hc        1 4BI      0.073700
     36 H19         1.2680    1.8470    4.3990 ha        1 4BI      0.178500
     37 H20         2.6090    1.8380    6.5040 ha        1 4BI      0.139500
     38 H22         4.2130   -2.0610    5.4830 ha        1 4BI      0.139500
     39 H23         2.9170   -2.0260    3.3570 ha        1 4BI      0.178500
     40 H25        -1.9350    0.3910    6.0560 hc        1 4BI      0.039589
     41 H25A       -3.4880    0.5500    5.1510 hc        1 4BI      0.039589
     42 H25B       -3.3960   -0.5340    6.6220 hc        1 4BI      0.039589
     43 H26        -3.4420   -2.9880    3.8000 hc        1 4BI      0.039589
     44 H26A       -4.4360   -1.4760    3.9240 hc        1 4BI      0.039589
     45 H26B       -4.1940   -2.5280    5.3910 hc        1 4BI      0.039589
     46 H27        -1.0860   -3.0170    4.8250 hc        1 4BI      0.039589
     47 H27A       -1.9590   -2.7540    6.3970 hc        1 4BI      0.039589
     48 H27B       -0.5970   -1.6590    5.9210 hc        1 4BI      0.039589
@<TRIPOS>BOND
     1    1    2 ar  
     2    1    6 ar  
     3    2    3 ar  
     4    2   10 ar  
     5    3    4 ar  
     6    3    7 ar  
     7    4    5 ar  
     8    4   18 1   
     9    5    6 ar  
    10    5   11 1   
    11    6   17 1   
    12    7    8 ar  
    13    7   28 1   
    14    8    9 ar  
    15    8   29 1   
    16    9   10 ar  
    17    9   30 1   
    18   10   31 1   
    19   11   12 1   
    20   11   15 1   
    21   11   32 1   
    22   12   13 1   
    23   12   14 1   
    24   15   16 1   
    25   16   25 1   
    26   16   26 1   
    27   16   27 1   
    28   17   33 1   
    29   17   34 1   
    30   17   35 1   
    31   18   19 ar  
    32   18   23 ar  
    33   19   20 ar  
    34   19   36 1   
    35   20   21 ar  
    36   20   37 1   
    37   21   22 ar  
    38   21   24 1   
    39   22   23 ar  
    40   22   38 1   
    41   23   39 1   
    42   25   40 1   
    43   25   41 1   
    44   25   42 1   
    45   26   43 1   
    46   26   44 1   
    47   26   45 1   
    48   27   46 1   
    49   27   47 1   
    50   27   48 1   
@<TRIPOS>SUBSTRUCTURE
     1 4BI         1 TEMP              0 ****  ****    0 ROOT
