@<TRIPOS>MOLECULE
molecule
   70    74     1     0     0
SMALL
bcc


@<TRIPOS>ATOM
      1 CBK          0.0000     0.0000     0.0000 c3         1 4BJ       0.123700
      2 OBJ          1.4290     0.0000     0.0000 os         1 4BJ      -0.312900
      3 CBE          2.0460     0.0000     1.2120 ca         1 4BJ       0.096100
      4 CBD          1.2940    -0.0050     2.3740 ca         1 4BJ      -0.092000
      5 CBF          3.4360     0.0000     1.2860 ca         1 4BJ       0.172100
      6 OBI          4.1790     0.0010     0.1480 os         1 4BJ      -0.306900
      7 CBL          5.6000     0.0010     0.3000 c3         1 4BJ       0.124700
      8 CBG          4.0600     0.0010     2.5220 ca         1 4BJ      -0.218000
      9 CBH          3.3030     0.0020     3.6800 ca         1 4BJ      -0.017000
     10 CBC          1.9230    -0.0100     3.6050 ca         1 4BJ      -0.314500
     11 SAZ          0.9630    -0.0100     5.0830 sy         1 4BJ       1.432200
     12 OBA         -0.2980    -0.5670     4.7430 o          1 4BJ      -0.639300
     13 OBB          1.7970    -0.5410     6.1040 o          1 4BJ      -0.639300
     14 NAK          0.6830     1.5720     5.4860 nu         1 4BJ      -0.756500
     15 CAC         -0.0160     2.4060     4.6030 ca         1 4BJ       0.135600
     16 CAD         -1.0550     1.8920     3.8420 ca         1 4BJ      -0.161000
     17 CAE         -1.7460     2.7200     2.9690 ca         1 4BJ      -0.008400
     18 NAG         -2.8090     2.5060     2.0930 n          1 4BJ      -0.361000
     19 CBO         -3.5000     1.2330     1.8770 c3         1 4BJ       0.119300
     20 CAH         -3.0930     3.6710     1.4770 c          1 4BJ       0.801500
     21 OBM         -3.9690     3.8290     0.6490 o          1 4BJ      -0.658500
     22 NAI         -2.2590     4.6310     1.9190 n          1 4BJ      -0.358000
     23 CBN         -2.2560     6.0300     1.4840 c3         1 4BJ       0.116300
     24 CAF         -1.3970     4.0670     2.8590 ca         1 4BJ       0.017600
     25 CAA         -0.3570     4.5780     3.6230 ca         1 4BJ      -0.187000
     26 CAB          0.3290     3.7530     4.4970 ca         1 4BJ       0.118100
     27 OAJ          1.3450     4.2550     5.2480 os         1 4BJ      -0.242200
     28 CAL          1.5690     5.5950     5.2070 ca         1 4BJ       0.135100
     29 CAM          0.6350     6.4720     5.7370 ca         1 4BJ      -0.189000
     30 CAQ          2.7340     6.0870     4.6350 ca         1 4BJ      -0.170000
     31 CAP          2.9620     7.4480     4.5910 ca         1 4BJ      -0.078000
     32 CAO          2.0310     8.3240     5.1150 ca         1 4BJ      -0.228000
     33 CAN          0.8660     7.8380     5.6930 ca         1 4BJ       0.155100
     34 OAR         -0.0470     8.7000     6.2120 os         1 4BJ      -0.319900
     35 CAS          0.2570    10.0930     6.1320 c3         1 4BJ       0.187700
     36 CAT         -0.8610    10.8890     6.7540 ca         1 4BJ      -0.099300
     37 CAU         -1.9270    11.3060     5.9790 ca         1 4BJ      -0.102000
     38 CAV         -2.9530    12.0360     6.5510 ca         1 4BJ      -0.131000
     39 CAW         -2.9130    12.3470     7.8970 ca         1 4BJ      -0.115000
     40 CAX         -1.8480    11.9290     8.6720 ca         1 4BJ      -0.131000
     41 CAY         -0.8240    11.1950     8.1010 ca         1 4BJ      -0.102000
     42 H1          -0.3610    -0.8320     0.5920 h1         1 4BJ       0.044033
     43 H2          -0.3610     0.9290     0.4250 h1         1 4BJ       0.044033
     44 H3          -0.3610    -0.0970    -1.0170 h1         1 4BJ       0.044033
     45 H4           0.2120    -0.0150     2.3190 ha         1 4BJ       0.158000
     46 H5           5.9050     0.8880     0.8430 h1         1 4BJ       0.044367
     47 H6           6.0680    -0.0020    -0.6770 h1         1 4BJ       0.044367
     48 H7           5.9050    -0.8810     0.8500 h1         1 4BJ       0.044367
     49 H8           5.1420     0.0060     2.5830 ha         1 4BJ       0.146000
     50 H9           3.7930     0.0000     4.6460 ha         1 4BJ       0.153000
     51 H10          0.9780     1.9210     6.3760 hn         1 4BJ       0.474800
     52 H11         -1.3850     0.8720     3.9970 ha         1 4BJ       0.194000
     53 H12         -2.9870     0.4470     2.4180 h1         1 4BJ       0.053367
     54 H13         -3.5050     0.9990     0.8190 h1         1 4BJ       0.053367
     55 H14         -4.5200     1.3100     2.2340 h1         1 4BJ       0.053367
     56 H15         -1.2560     6.3100     1.1750 h1         1 4BJ       0.054033
     57 H16         -2.5720     6.6630     2.3040 h1         1 4BJ       0.054033
     58 H17         -2.9380     6.1510     0.6510 h1         1 4BJ       0.054033
     59 H18         -0.0880     5.6240     3.5400 ha         1 4BJ       0.157000
     60 H19         -0.2730     6.0900     6.1870 ha         1 4BJ       0.160000
     61 H20          3.4650     5.4020     4.2230 ha         1 4BJ       0.147000
     62 H21          3.8710     7.8300     4.1420 ha         1 4BJ       0.138000
     63 H22          2.2130     9.3920     5.0790 ha         1 4BJ       0.139000
     64 H23          1.1800    10.2930     6.6620 h1         1 4BJ       0.041700
     65 H24          0.3690    10.3790     5.0930 h1         1 4BJ       0.041700
     66 H25         -1.9590    11.0630     4.9240 ha         1 4BJ       0.133000
     67 H26         -3.7880    12.3630     5.9440 ha         1 4BJ       0.133000
     68 H27         -3.7170    12.9200     8.3440 ha         1 4BJ       0.132000
     69 H28         -1.8180    12.1710     9.7270 ha         1 4BJ       0.133000
     70 H29          0.0110    10.8670     8.7080 ha         1 4BJ       0.133000
@<TRIPOS>BOND
     1    12    11 2   
     2    13    11 2   
     3    11    10 1   
     4    11    14 1   
     5    10     9 ar  
     6    10     4 ar  
     7     9     8 ar  
     8     4     3 ar  
     9     8     5 ar  
    10    14    15 1   
    11     3     5 ar  
    12     3     2 1   
    13     5     6 1   
    14    19    18 1   
    15    16    15 ar  
    16    16    17 ar  
    17    15    26 ar  
    18     1     2 1   
    19     6     7 1   
    20    18    17 1   
    21    18    20 1   
    22    17    24 ar  
    23    26    27 1   
    24    26    25 ar  
    25    27    28 1   
    26    20    21 2   
    27    20    22 1   
    28    24    25 ar  
    29    24    22 1   
    30    28    29 ar  
    31    28    30 ar  
    32    29    33 ar  
    33    30    31 ar  
    34    22    23 1   
    35    33    34 1   
    36    33    32 ar  
    37    34    35 1   
    38    32    31 ar  
    39    37    38 ar  
    40    37    36 ar  
    41    38    39 ar  
    42    36    35 1   
    43    36    41 ar  
    44    39    40 ar  
    45    41    40 ar  
    46     1    42 1   
    47     1    43 1   
    48     1    44 1   
    49     4    45 1   
    50     7    46 1   
    51     7    47 1   
    52     7    48 1   
    53     8    49 1   
    54     9    50 1   
    55    14    51 1   
    56    16    52 1   
    57    19    53 1   
    58    19    54 1   
    59    19    55 1   
    60    23    56 1   
    61    23    57 1   
    62    23    58 1   
    63    25    59 1   
    64    29    60 1   
    65    30    61 1   
    66    31    62 1   
    67    32    63 1   
    68    35    64 1   
    69    35    65 1   
    70    37    66 1   
    71    38    67 1   
    72    39    68 1   
    73    40    69 1   
    74    41    70 1   
@<TRIPOS>SUBSTRUCTURE
     1 4BJ         1 TEMP              0 ****  ****    0 ROOT
