@<TRIPOS>MOLECULE
4BJ
   70    74     1     0     0
SMALL
bcc


@<TRIPOS>ATOM
      1 CBK          0.0000     0.0000     0.0000 c3         1 4BJ       0.237700
      2 OBJ          1.4290     0.0000     0.0000 os         1 4BJ      -0.291900
      3 CBE          2.0460     0.0000     1.2120 ca         1 4BJ       0.091100
      4 CBD          1.2940    -0.0050     2.3740 ca         1 4BJ      -0.078000
      5 CBF          3.4360     0.0000     1.2860 ca         1 4BJ       0.173100
      6 OBI          4.1790     0.0010     0.1480 os         1 4BJ      -0.289900
      7 CBL          5.6000     0.0010     0.3000 c3         1 4BJ       0.242700
      8 CBG          4.0600     0.0010     2.5220 ca         1 4BJ      -0.214000
      9 CBH          3.3030     0.0020     3.6800 ca         1 4BJ       0.016000
     10 CBC          1.9230    -0.0100     3.6050 ca         1 4BJ      -0.157500
     11 SAZ          0.9630    -0.0100     5.0830 sy         1 4BJ       1.044200
     12 OBA         -0.2980    -0.5670     4.7430 o          1 4BJ      -0.591300
     13 OBB          1.7970    -0.5410     6.1040 o          1 4BJ      -0.591300
     14 NAK          0.6830     1.5720     5.4860 nu         1 4BJ      -0.379500
     15 CAC         -0.0160     2.4060     4.6030 ca         1 4BJ       0.047600
     16 CAD         -1.0550     1.8920     3.8420 ca         1 4BJ      -0.143000
     17 CAE         -1.7460     2.7200     2.9690 ca         1 4BJ      -0.152400
     18 NAG         -2.8090     2.5060     2.0930 n          1 4BJ       0.043000
     19 CBO         -3.5000     1.2330     1.8770 c3         1 4BJ       0.090300
     20 CAH         -3.0930     3.6710     1.4770 c          1 4BJ       0.581500
     21 OBM         -3.9690     3.8290     0.6490 o          1 4BJ      -0.718500
     22 NAI         -2.2590     4.6310     1.9190 n          1 4BJ       0.046000
     23 CBN         -2.2560     6.0300     1.4840 c3         1 4BJ       0.085300
     24 CAF         -1.3970     4.0670     2.8590 ca         1 4BJ      -0.130400
     25 CAA         -0.3570     4.5780     3.6230 ca         1 4BJ      -0.164000
     26 CAB          0.3290     3.7530     4.4970 ca         1 4BJ       0.115100
     27 OAJ          1.3450     4.2550     5.2480 os         1 4BJ      -0.219200
     28 CAL          1.5690     5.5950     5.2070 ca         1 4BJ       0.146100
     29 CAM          0.6350     6.4720     5.7370 ca         1 4BJ      -0.182000
     30 CAQ          2.7340     6.0870     4.6350 ca         1 4BJ      -0.159000
     31 CAP          2.9620     7.4480     4.5910 ca         1 4BJ      -0.038000
     32 CAO          2.0310     8.3240     5.1150 ca         1 4BJ      -0.223000
     33 CAN          0.8660     7.8380     5.6930 ca         1 4BJ       0.170100
     34 OAR         -0.0470     8.7000     6.2120 os         1 4BJ      -0.298900
     35 CAS          0.2570    10.0930     6.1320 c3         1 4BJ       0.264700
     36 CAT         -0.8610    10.8890     6.7540 ca         1 4BJ      -0.117300
     37 CAU         -1.9270    11.3060     5.9790 ca         1 4BJ      -0.074500
     38 CAV         -2.9530    12.0360     6.5510 ca         1 4BJ      -0.104000
     39 CAW         -2.9130    12.3470     7.8970 ca         1 4BJ      -0.088000
     40 CAX         -1.8480    11.9290     8.6720 ca         1 4BJ      -0.104000
     41 CAY         -0.8240    11.1950     8.1010 ca         1 4BJ      -0.074500
     42 H1          -0.3610    -0.8320     0.5920 h1         1 4BJ       0.000367
     43 H2          -0.3610     0.9290     0.4250 h1         1 4BJ       0.000367
     44 H3          -0.3610    -0.0970    -1.0170 h1         1 4BJ       0.000367
     45 H4           0.2120    -0.0150     2.3190 ha         1 4BJ       0.141000
     46 H5           5.9050     0.8880     0.8430 h1         1 4BJ      -0.000633
     47 H6           6.0680    -0.0020    -0.6770 h1         1 4BJ      -0.000633
     48 H7           5.9050    -0.8810     0.8500 h1         1 4BJ      -0.000633
     49 H8           5.1420     0.0060     2.5830 ha         1 4BJ       0.128000
     50 H9           3.7930     0.0000     4.6460 ha         1 4BJ       0.123000
     51 H10          0.9780     1.9210     6.3760 hn         1 4BJ       0.353800
     52 H11         -1.3850     0.8720     3.9970 ha         1 4BJ       0.181000
     53 H12         -2.9870     0.4470     2.4180 h1         1 4BJ       0.019033
     54 H13         -3.5050     0.9990     0.8190 h1         1 4BJ       0.019033
     55 H14         -4.5200     1.3100     2.2340 h1         1 4BJ       0.019033
     56 H15         -1.2560     6.3100     1.1750 h1         1 4BJ       0.019367
     57 H16         -2.5720     6.6630     2.3040 h1         1 4BJ       0.019367
     58 H17         -2.9380     6.1510     0.6510 h1         1 4BJ       0.019367
     59 H18         -0.0880     5.6240     3.5400 ha         1 4BJ       0.134000
     60 H19         -0.2730     6.0900     6.1870 ha         1 4BJ       0.134000
     61 H20          3.4650     5.4020     4.2230 ha         1 4BJ       0.119000
     62 H21          3.8710     7.8300     4.1420 ha         1 4BJ       0.104000
     63 H22          2.2130     9.3920     5.0790 ha         1 4BJ       0.123000
     64 H23          1.1800    10.2930     6.6620 h1         1 4BJ       0.004700
     65 H24          0.3690    10.3790     5.0930 h1         1 4BJ       0.004700
     66 H25         -1.9590    11.0630     4.9240 ha         1 4BJ       0.105500
     67 H26         -3.7880    12.3630     5.9440 ha         1 4BJ       0.105000
     68 H27         -3.7170    12.9200     8.3440 ha         1 4BJ       0.103000
     69 H28         -1.8180    12.1710     9.7270 ha         1 4BJ       0.105000
     70 H29          0.0110    10.8670     8.7080 ha         1 4BJ       0.105500
@<TRIPOS>BOND
     1     1     2 1   
     2     1    42 1   
     3     1    43 1   
     4     1    44 1   
     5     2     3 1   
     6     3     4 ar  
     7     3     5 ar  
     8     4    10 ar  
     9     4    45 1   
    10     5     6 1   
    11     5     8 ar  
    12     6     7 1   
    13     7    46 1   
    14     7    47 1   
    15     7    48 1   
    16     8     9 ar  
    17     8    49 1   
    18     9    10 ar  
    19     9    50 1   
    20    10    11 1   
    21    11    12 2   
    22    11    13 2   
    23    11    14 1   
    24    14    15 1   
    25    14    51 1   
    26    15    16 ar  
    27    15    26 ar  
    28    16    17 ar  
    29    16    52 1   
    30    17    18 1   
    31    17    24 ar  
    32    18    19 1   
    33    18    20 1   
    34    19    53 1   
    35    19    54 1   
    36    19    55 1   
    37    20    21 2   
    38    20    22 1   
    39    22    23 1   
    40    22    24 1   
    41    23    56 1   
    42    23    57 1   
    43    23    58 1   
    44    24    25 ar  
    45    25    26 ar  
    46    25    59 1   
    47    26    27 1   
    48    27    28 1   
    49    28    29 ar  
    50    28    30 ar  
    51    29    33 ar  
    52    29    60 1   
    53    30    31 ar  
    54    30    61 1   
    55    31    32 ar  
    56    31    62 1   
    57    32    33 ar  
    58    32    63 1   
    59    33    34 1   
    60    34    35 1   
    61    35    36 1   
    62    35    64 1   
    63    35    65 1   
    64    36    37 ar  
    65    36    41 ar  
    66    37    38 ar  
    67    37    66 1   
    68    38    39 ar  
    69    38    67 1   
    70    39    40 ar  
    71    39    68 1   
    72    40    41 ar  
    73    40    69 1   
    74    41    70 1   
@<TRIPOS>SUBSTRUCTURE
     1 4BJ         1 TEMP              0 ****  ****    0 ROOT
