@<TRIPOS>MOLECULE
4BK
   64    67     1     0     0
SMALL
bcc


@<TRIPOS>ATOM
      1 CAX          0.0000     0.0000     0.0000 c3         1 4BK       0.008400
      2 CAW          1.5300     0.0000     0.0000 c3         1 4BK      -0.059700
      3 CAY          2.0390     0.0000     1.4420 c3         1 4BK       0.008400
      4 CAV          2.0400    -1.2490    -0.7210 c3         1 4BK       0.203400
      5 OAU          1.6610    -1.1910    -2.0980 os         1 4BK      -0.302900
      6 CAS          2.0400    -2.2320    -2.8860 ca         1 4BK       0.171100
      7 CAT          1.7070    -2.2400    -4.2320 ca         1 4BK      -0.159000
      8 CAR          2.7650    -3.2850    -2.3450 ca         1 4BK      -0.222000
      9 CAQ          3.1500    -4.3430    -3.1460 ca         1 4BK      -0.039000
     10 CAP          2.8140    -4.3570    -4.4860 ca         1 4BK      -0.182000
     11 CAO          2.0950    -3.3040    -5.0330 ca         1 4BK       0.146100
     12 OAN          1.7690    -3.3160    -6.3510 os         1 4BK      -0.215200
     13 CAC          0.8790    -4.2500    -6.7820 ca         1 4BK       0.117100
     14 CAD          0.2380    -5.0670    -5.8660 ca         1 4BK      -0.169000
     15 CAE         -0.6700    -6.0190    -6.3060 ca         1 4BK      -0.134400
     16 NAG         -1.4550    -6.9660    -5.6470 n          1 4BK       0.044000
     17 CAL         -1.5000    -7.1850    -4.1990 c3         1 4BK       0.086300
     18 CAH         -2.1660    -7.6430    -6.5680 c          1 4BK       0.581500
     19 OAJ         -2.9510    -8.5410    -6.3270 o          1 4BK      -0.724500
     20 NAI         -1.8740    -7.1770    -7.7970 n          1 4BK       0.047000
     21 CAK         -2.4470    -7.6620    -9.0550 c3         1 4BK       0.087300
     22 CAF         -0.9360    -6.1540    -7.6690 ca         1 4BK      -0.154400
     23 CAA         -0.2930    -5.3350    -8.5850 ca         1 4BK      -0.142000
     24 CAB          0.6090    -4.3800    -8.1430 ca         1 4BK       0.049600
     25 NAM          1.2550    -3.5480    -9.0670 nu         1 4BK      -0.375500
     26 SAZ          0.4520    -3.0300   -10.4200 sy         1 4BK       0.993800
     27 OBA          1.3140    -2.1070   -11.0700 o          1 4BK      -0.581800
     28 OBB         -0.0580    -4.1950   -11.0530 o          1 4BK      -0.581800
     29 CBC         -0.9470    -2.1070    -9.8750 cc         1 4BK       0.230200
     30 CBG         -2.1710    -2.6050    -9.6170 cd         1 4BK      -0.322600
     31 NBD         -0.9760    -0.7880    -9.6370 nc         1 4BK      -0.519000
     32 CBE         -2.1740    -0.4470    -9.2490 cd         1 4BK       0.182800
     33 CBI         -2.6170     0.9460    -8.8850 c3         1 4BK       0.009600
     34 NBF         -2.9500    -1.5530    -9.2160 na         1 4BK       0.301100
     35 CBH         -4.3620    -1.6130    -8.8320 c3         1 4BK      -0.012400
     36 H1          -0.3610    -0.9570     0.3560 hc         1 4BK       0.005533
     37 H2          -0.3610     0.7870     0.6510 hc         1 4BK       0.005533
     38 H3          -0.3610     0.1710    -1.0070 hc         1 4BK       0.005533
     39 H4           1.8910     0.8850    -0.5100 hc         1 4BK       0.036700
     40 H5           3.1220    -0.0110     1.4430 hc         1 4BK       0.005533
     41 H6           1.6680    -0.8790     1.9560 hc         1 4BK       0.005533
     42 H7           1.6870     0.8900     1.9490 hc         1 4BK       0.005533
     43 H8           1.6070    -2.1310    -0.2650 h1         1 4BK       0.004700
     44 H9           3.1190    -1.2950    -0.6440 h1         1 4BK       0.004700
     45 H10          1.1450    -1.4170    -4.6570 ha         1 4BK       0.131000
     46 H11          3.0300    -3.2770    -1.2950 ha         1 4BK       0.123000
     47 H12          3.7140    -5.1650    -2.7210 ha         1 4BK       0.104000
     48 H13          3.1170    -5.1880    -5.1110 ha         1 4BK       0.122000
     49 H14          0.4290    -4.9480    -4.8060 ha         1 4BK       0.133000
     50 H15         -2.2600    -7.9220    -3.9690 h1         1 4BK       0.018700
     51 H16         -1.7370    -6.2530    -3.7000 h1         1 4BK       0.018700
     52 H17         -0.5360    -7.5420    -3.8580 h1         1 4BK       0.018700
     53 H18         -2.9530    -8.6040    -8.8820 h1         1 4BK       0.019700
     54 H19         -1.6550    -7.8060    -9.7810 h1         1 4BK       0.019700
     55 H20         -3.1560    -6.9360    -9.4330 h1         1 4BK       0.019700
     56 H21         -0.5020    -5.4350    -9.6430 ha         1 4BK       0.181000
     57 H22          2.2210    -3.3160    -8.9400 hn         1 4BK       0.355800
     58 H23         -2.4800    -3.6400    -9.7060 h4         1 4BK       0.166000
     59 H24         -3.3930     1.2690    -9.5680 hc         1 4BK       0.013700
     60 H25         -3.0030     0.9500    -7.8720 hc         1 4BK       0.013700
     61 H26         -1.7730     1.6230    -8.9520 hc         1 4BK       0.013700
     62 H27         -4.4620    -1.3590    -7.7830 h1         1 4BK       0.027033
     63 H28         -4.7390    -2.6150    -8.9980 h1         1 4BK       0.027033
     64 H29         -4.9300    -0.9100    -9.4290 h1         1 4BK       0.027033
@<TRIPOS>BOND
     1     1     2 1   
     2     1    36 1   
     3     1    37 1   
     4     1    38 1   
     5     2     3 1   
     6     2     4 1   
     7     2    39 1   
     8     3    40 1   
     9     3    41 1   
    10     3    42 1   
    11     4     5 1   
    12     4    43 1   
    13     4    44 1   
    14     5     6 1   
    15     6     7 ar  
    16     6     8 ar  
    17     7    11 ar  
    18     7    45 1   
    19     8     9 ar  
    20     8    46 1   
    21     9    10 ar  
    22     9    47 1   
    23    10    11 ar  
    24    10    48 1   
    25    11    12 1   
    26    12    13 1   
    27    13    14 ar  
    28    13    24 ar  
    29    14    15 ar  
    30    14    49 1   
    31    15    16 1   
    32    15    22 ar  
    33    16    17 1   
    34    16    18 1   
    35    17    50 1   
    36    17    51 1   
    37    17    52 1   
    38    18    19 2   
    39    18    20 1   
    40    20    21 1   
    41    20    22 1   
    42    21    53 1   
    43    21    54 1   
    44    21    55 1   
    45    22    23 ar  
    46    23    24 ar  
    47    23    56 1   
    48    24    25 1   
    49    25    26 1   
    50    25    57 1   
    51    26    27 2   
    52    26    28 2   
    53    26    29 1   
    54    29    30 2   
    55    29    31 1   
    56    30    34 1   
    57    30    58 1   
    58    31    32 2   
    59    32    33 1   
    60    32    34 1   
    61    33    59 1   
    62    33    60 1   
    63    33    61 1   
    64    34    35 1   
    65    35    62 1   
    66    35    63 1   
    67    35    64 1   
@<TRIPOS>SUBSTRUCTURE
     1 4BK         1 TEMP              0 ****  ****    0 ROOT
