@<TRIPOS>MOLECULE
molecule
   64    67     1     0     0
SMALL
bcc


@<TRIPOS>ATOM
      1 CAX          0.0000     0.0000     0.0000 c3         1 4BK      -0.087600
      2 CAW          1.5300     0.0000     0.0000 c3         1 4BK      -0.075700
      3 CAY          2.0390     0.0000     1.4420 c3         1 4BK      -0.087600
      4 CAV          2.0400    -1.2490    -0.7210 c3         1 4BK       0.141400
      5 OAU          1.6610    -1.1910    -2.0980 os         1 4BK      -0.326900
      6 CAS          2.0400    -2.2320    -2.8860 ca         1 4BK       0.157100
      7 CAT          1.7070    -2.2400    -4.2320 ca         1 4BK      -0.165000
      8 CAR          2.7650    -3.2850    -2.3450 ca         1 4BK      -0.227000
      9 CAQ          3.1500    -4.3430    -3.1460 ca         1 4BK      -0.079000
     10 CAP          2.8140    -4.3570    -4.4860 ca         1 4BK      -0.195000
     11 CAO          2.0950    -3.3040    -5.0330 ca         1 4BK       0.135100
     12 OAN          1.7690    -3.3160    -6.3510 os         1 4BK      -0.237200
     13 CAC          0.8790    -4.2500    -6.7820 ca         1 4BK       0.121100
     14 CAD          0.2380    -5.0670    -5.8660 ca         1 4BK      -0.191000
     15 CAE         -0.6700    -6.0190    -6.3060 ca         1 4BK       0.013600
     16 NAG         -1.4550    -6.9660    -5.6470 n          1 4BK      -0.360000
     17 CAL         -1.5000    -7.1850    -4.1990 c3         1 4BK       0.117300
     18 CAH         -2.1660    -7.6430    -6.5680 c          1 4BK       0.801500
     19 OAJ         -2.9510    -8.5410    -6.3270 o          1 4BK      -0.664500
     20 NAI         -1.8740    -7.1770    -7.7970 n          1 4BK      -0.359000
     21 CAK         -2.4470    -7.6620    -9.0550 c3         1 4BK       0.117300
     22 CAF         -0.9360    -6.1540    -7.6690 ca         1 4BK      -0.010400
     23 CAA         -0.2930    -5.3350    -8.5850 ca         1 4BK      -0.161000
     24 CAB          0.6090    -4.3800    -8.1430 ca         1 4BK       0.136600
     25 NAM          1.2550    -3.5480    -9.0670 nu         1 4BK      -0.754500
     26 SAZ          0.4520    -3.0300   -10.4200 sy         1 4BK       1.385800
     27 OBA          1.3140    -2.1070   -11.0700 o          1 4BK      -0.628800
     28 OBB         -0.0580    -4.1950   -11.0530 o          1 4BK      -0.628800
     29 CBC         -0.9470    -2.1070    -9.8750 cc         1 4BK       0.095200
     30 CBG         -2.1710    -2.6050    -9.6170 cd         1 4BK      -0.159600
     31 NBD         -0.9760    -0.7880    -9.6370 nc         1 4BK      -0.610000
     32 CBE         -2.1740    -0.4470    -9.2490 cd         1 4BK       0.400800
     33 CBI         -2.6170     0.9460    -8.8850 c3         1 4BK      -0.106400
     34 NBF         -2.9500    -1.5530    -9.2160 na         1 4BK      -0.174900
     35 CBH         -4.3620    -1.6130    -8.8320 c3         1 4BK       0.027600
     36 H1          -0.3610    -0.9570     0.3560 hc         1 4BK       0.038700
     37 H2          -0.3610     0.7870     0.6510 hc         1 4BK       0.038700
     38 H3          -0.3610     0.1710    -1.0070 hc         1 4BK       0.038700
     39 H4           1.8910     0.8850    -0.5100 hc         1 4BK       0.065700
     40 H5           3.1220    -0.0110     1.4430 hc         1 4BK       0.038700
     41 H6           1.6680    -0.8790     1.9560 hc         1 4BK       0.038700
     42 H7           1.6870     0.8900     1.9490 hc         1 4BK       0.038700
     43 H8           1.6070    -2.1310    -0.2650 h1         1 4BK       0.037200
     44 H9           3.1190    -1.2950    -0.6440 h1         1 4BK       0.037200
     45 H10          1.1450    -1.4170    -4.6570 ha         1 4BK       0.161000
     46 H11          3.0300    -3.2770    -1.2950 ha         1 4BK       0.139000
     47 H12          3.7140    -5.1650    -2.7210 ha         1 4BK       0.136000
     48 H13          3.1170    -5.1880    -5.1110 ha         1 4BK       0.146000
     49 H14          0.4290    -4.9480    -4.8060 ha         1 4BK       0.156000
     50 H15         -2.2600    -7.9220    -3.9690 h1         1 4BK       0.053033
     51 H16         -1.7370    -6.2530    -3.7000 h1         1 4BK       0.053033
     52 H17         -0.5360    -7.5420    -3.8580 h1         1 4BK       0.053033
     53 H18         -2.9530    -8.6040    -8.8820 h1         1 4BK       0.054367
     54 H19         -1.6550    -7.8060    -9.7810 h1         1 4BK       0.054367
     55 H20         -3.1560    -6.9360    -9.4330 h1         1 4BK       0.054367
     56 H21         -0.5020    -5.4350    -9.6430 ha         1 4BK       0.194000
     57 H22          2.2210    -3.3160    -8.9400 hn         1 4BK       0.476800
     58 H23         -2.4800    -3.6400    -9.7060 h4         1 4BK       0.189000
     59 H24         -3.3930     1.2690    -9.5680 hc         1 4BK       0.057700
     60 H25         -3.0030     0.9500    -7.8720 hc         1 4BK       0.057700
     61 H26         -1.7730     1.6230    -8.9520 hc         1 4BK       0.057700
     62 H27         -4.4620    -1.3590    -7.7830 h1         1 4BK       0.058700
     63 H28         -4.7390    -2.6150    -8.9980 h1         1 4BK       0.058700
     64 H29         -4.9300    -0.9100    -9.4290 h1         1 4BK       0.058700
@<TRIPOS>BOND
     1    17    16 1   
     2    19    18 2   
     3    16    18 1   
     4    16    15 1   
     5    18    20 1   
     6     1     2 1   
     7     3     2 1   
     8    20    21 1   
     9    20    22 1   
    10    15    14 ar  
    11    15    22 ar  
    12     2     4 1   
    13    14    13 ar  
    14    22    23 ar  
    15     4     5 1   
    16     5     6 1   
    17     6     7 ar  
    18     6     8 ar  
    19     7    11 ar  
    20    13    12 1   
    21    13    24 ar  
    22    23    24 ar  
    23     8     9 ar  
    24    11    12 1   
    25    11    10 ar  
    26     9    10 ar  
    27    24    25 1   
    28    35    34 1   
    29    34    30 1   
    30    34    32 1   
    31    30    29 2   
    32    25    26 1   
    33    32    33 1   
    34    32    31 2   
    35    29    31 1   
    36    29    26 1   
    37    28    26 2   
    38    26    27 2   
    39     1    36 1   
    40     1    37 1   
    41     1    38 1   
    42     2    39 1   
    43     3    40 1   
    44     3    41 1   
    45     3    42 1   
    46     4    43 1   
    47     4    44 1   
    48     7    45 1   
    49     8    46 1   
    50     9    47 1   
    51    10    48 1   
    52    14    49 1   
    53    17    50 1   
    54    17    51 1   
    55    17    52 1   
    56    21    53 1   
    57    21    54 1   
    58    21    55 1   
    59    23    56 1   
    60    25    57 1   
    61    30    58 1   
    62    33    59 1   
    63    33    60 1   
    64    33    61 1   
    65    35    62 1   
    66    35    63 1   
    67    35    64 1   
@<TRIPOS>SUBSTRUCTURE
     1 4BK         1 TEMP              0 ****  ****    0 ROOT
