@<TRIPOS>MOLECULE
4BL
   21    22     1     0     0
SMALL
bcc


@<TRIPOS>ATOM
      1 C1         -0.0430    0.0090    0.0020 cc        1 4BL     -0.072300
      2 N2          1.3570    0.0320    0.0060 na        1 4BL     -0.169400
      3 C3         -0.5080   -0.0280    1.3220 cd        1 4BL     -0.219200
      4 C4          1.8100    0.0110    1.3200 ca        1 4BL     -0.066200
      5 C5         -0.8260    0.0230   -1.3050 c         1 4BL      0.926800
      6 C6          0.6410   -0.0270    2.1880 ca        1 4BL     -0.087800
      7 C7          3.1060    0.0220    1.8540 ca        1 4BL     -0.143000
      8 O8         -0.1580    0.0570   -2.3760 o         1 4BL     -0.817300
      9 C9          0.8310   -0.0530    3.5690 ca        1 4BL     -0.099000
     10 O10        -2.0820    0.0010   -1.2280 o         1 4BL     -0.817300
     11 C11         3.2500   -0.0050    3.2380 ca        1 4BL     -0.104300
     12 C12         2.1190   -0.0420    4.0810 ca        1 4BL     -0.175000
     13 C13         4.6000    0.0030    3.8500 c3        1 4BL     -0.034800
     14 H3         -1.5510   -0.0510    1.6200 ha        1 4BL      0.157000
     15 H7          3.9840    0.0510    1.1960 ha        1 4BL      0.116000
     16 H9         -0.0380   -0.0820    4.2400 ha        1 4BL      0.117000
     17 H12         2.2750   -0.0630    5.1680 ha        1 4BL      0.105000
     18 H13         4.7120    0.8820    4.5320 hc        1 4BL      0.025700
     19 H13A        5.4000    0.0570    3.0720 hc        1 4BL      0.025700
     20 H13B        4.7590   -0.9260    4.4530 hc        1 4BL      0.025700
     21 HN2         1.9040    0.0590   -0.8150 hn        1 4BL      0.306700
@<TRIPOS>BOND
     1    1    2 1   
     2    1    3 2   
     3    1    5 1   
     4    2    4 1   
     5    2   21 1   
     6    3    6 1   
     7    3   14 1   
     8    4    6 ar  
     9    4    7 ar  
    10    5    8 1   
    11    5   10 1   
    12    6    9 ar  
    13    7   11 ar  
    14    7   15 1   
    15    9   12 ar  
    16    9   16 1   
    17   11   12 ar  
    18   11   13 1   
    19   12   17 1   
    20   13   18 1   
    21   13   19 1   
    22   13   20 1   
@<TRIPOS>SUBSTRUCTURE
     1 4BL         1 TEMP              0 ****  ****    0 ROOT
