@<TRIPOS>MOLECULE
molecule
   21    22     1     0     0
SMALL
bcc


@<TRIPOS>ATOM
      1 C1           0.0000     0.0000     0.0000 cc         1 4BL      -0.049300
      2 N2           1.3820     0.0000     0.0000 na         1 4BL      -0.153400
      3 C3          -0.4450    -0.0020     1.2850 cd         1 4BL      -0.215200
      4 C4           1.8250     0.0000     1.3020 ca         1 4BL      -0.066200
      5 C5          -0.8520     0.0060    -1.1960 c          1 4BL       0.894800
      6 C6           0.6880    -0.0010     2.1340 ca         1 4BL      -0.098800
      7 C7           3.0930     0.0010     1.8760 ca         1 4BL      -0.139000
      8 O8          -0.2910     0.0110    -2.4230 o          1 4BL      -0.827300
      9 C9           0.8460    -0.0020     3.5250 ca         1 4BL      -0.092000
     10 O10         -2.0620     0.0030    -1.0820 o          1 4BL      -0.827300
     11 C11          3.2220     0.0010     3.2470 ca         1 4BL      -0.103300
     12 C12          2.1000    -0.0010     4.0650 ca         1 4BL      -0.172000
     13 C13          4.5970     0.0000     3.8660 c3         1 4BL      -0.035800
     14 H3          -1.4810    -0.0020     1.6020 ha         1 4BL       0.157000
     15 H7           3.9750     0.0020     1.2470 ha         1 4BL       0.112000
     16 H9          -0.0230    -0.0030     4.1710 ha         1 4BL       0.115000
     17 H12          2.2210    -0.0010     5.1420 ha         1 4BL       0.106000
     18 H13          5.0510    -0.9740     3.7370 hc         1 4BL       0.028367
     19 H13A         4.5170     0.2240     4.9230 hc         1 4BL       0.028367
     20 H13B         5.2100     0.7520     3.3830 hc         1 4BL       0.028367
     21 HN2          1.9650     0.0010    -0.8140 hn         1 4BL       0.308700
@<TRIPOS>BOND
     1     3     1 2   
     2     5     1 1   
     3     1     2 1   
     4     4     2 1   
     5     3     6 1   
     6     3    14 1   
     7     6     4 ar  
     8     4     7 ar  
     9    10     5 1   
    10     5     8 1   
    11     9     6 ar  
    12    11     7 ar  
    13     7    15 1   
    14     9    12 ar  
    15     9    16 1   
    16    12    11 ar  
    17    11    13 1   
    18    12    17 1   
    19    13    18 1   
    20    13    19 1   
    21    13    20 1   
    22     2    21 1   
@<TRIPOS>SUBSTRUCTURE
     1 4BL         1 TEMP              0 ****  ****    0 ROOT
