@<TRIPOS>MOLECULE
4BM
   40    41     1     0     0
SMALL
bcc


@<TRIPOS>ATOM
      1 C01          0.0000     0.0000     0.0000 ca         1 4BM       0.058600
      2 C02          1.3890     0.0000     0.0000 ca         1 4BM      -0.164000
      3 C03          2.0780     0.0000     1.1980 ca         1 4BM      -0.045000
      4 C04          1.3870     0.0000     2.3960 ca         1 4BM       0.171900
      5 C05          0.0040     0.0000     2.4000 ca         1 4BM      -0.069000
      6 C06         -0.6920     0.0010     1.2060 ca         1 4BM       0.044900
      7 N07         -0.7010     0.0070    -1.2110 nu         1 4BM      -0.231000
      8 C08         -0.0130     0.1450    -2.4110 ca         1 4BM       0.059600
      9 C09          0.5790    -0.9740    -3.0180 ca         1 4BM      -0.143600
     10 C10          1.2680    -0.8240    -4.2250 ca         1 4BM      -0.072000
     11 C11          1.3640     0.4180    -4.8130 ca         1 4BM      -0.112000
     12 C12          0.7780     1.5240    -4.2120 ca         1 4BM       0.106900
     13 C13          0.0880     1.3900    -3.0200 ca         1 4BM       0.070900
     14 C14          0.4750    -2.3010    -2.3860 c          1 4BM       0.591700
     15 N15          1.1390    -3.3510    -2.9080 ns         1 4BM      -0.063400
     16 O16         -0.2110    -2.4490    -1.3920 o          1 4BM      -0.610100
     17 O17          1.0390    -4.6260    -2.3010 os         1 4BM      -0.255900
     18 C18          1.7940    -5.6450    -2.9600 c3         1 4BM       0.179400
     19 C19          1.6120    -6.9720    -2.2210 c3         1 4BM       0.185100
     20 C20          2.3180    -8.0870    -2.9960 c3         1 4BM       0.210400
     21 O21          2.1760    -6.8700    -0.9120 oh         1 4BM      -0.571800
     22 O22          2.0510    -9.3440    -2.3700 oh         1 4BM      -0.583800
     23 I23          2.4390    -0.0010     4.2080 i          1 4BM      -0.297900
     24 F24         -2.0440     0.0020     1.2110 f          1 4BM      -0.126900
     25 F25         -0.4840     2.4710    -2.4450 f          1 4BM      -0.104900
     26 F26          0.8780     2.7380    -4.7970 f          1 4BM      -0.110900
     27 H02          1.9310    -0.0000    -0.9380 ha         1 4BM       0.116000
     28 H03          3.1620    -0.0000     1.1990 ha         1 4BM       0.115000
     29 H05         -0.5340     0.0010     3.3400 ha         1 4BM       0.129000
     30 HN07        -1.7000    -0.0440    -1.2110 hn         1 4BM       0.310800
     31 H10          1.7260    -1.6840    -4.6980 ha         1 4BM       0.109000
     32 H11          1.9000     0.5320    -5.7470 ha         1 4BM       0.127000
     33 HN15         1.6970    -3.2310    -3.7300 hn         1 4BM       0.164500
     34 H18          1.4450    -5.7490    -3.9810 h1         1 4BM       0.002700
     35 H18A         2.8420    -5.3730    -2.9620 h1         1 4BM       0.002700
     36 H19          0.5560    -7.2000    -2.1430 h1         1 4BM       0.020700
     37 H20          3.3860    -7.9050    -2.9980 h1         1 4BM      -0.007300
     38 H20A         1.9530    -8.1060    -4.0150 h1         1 4BM      -0.007300
     39 HO21         1.5100    -7.0480    -0.2680 ho         1 4BM       0.404000
     40 HO22         2.3280   -10.0430    -2.9390 ho         1 4BM       0.393000
@<TRIPOS>BOND
     1     1     2 ar  
     2     1     6 ar  
     3     1     7 1   
     4     2     3 ar  
     5     2    27 1   
     6     3     4 ar  
     7     3    28 1   
     8     4     5 ar  
     9     4    23 1   
    10     5     6 ar  
    11     5    29 1   
    12     6    24 1   
    13     7     8 1   
    14     7    30 1   
    15     8     9 ar  
    16     8    13 ar  
    17     9    10 ar  
    18     9    14 1   
    19    10    11 ar  
    20    10    31 1   
    21    11    12 ar  
    22    11    32 1   
    23    12    13 ar  
    24    12    26 1   
    25    13    25 1   
    26    14    15 1   
    27    14    16 2   
    28    15    17 1   
    29    15    33 1   
    30    17    18 1   
    31    18    19 1   
    32    18    34 1   
    33    18    35 1   
    34    19    20 1   
    35    19    21 1   
    36    19    36 1   
    37    20    22 1   
    38    20    37 1   
    39    20    38 1   
    40    21    39 1   
    41    22    40 1   
@<TRIPOS>SUBSTRUCTURE
     1 4BM         1 TEMP              0 ****  ****    0 ROOT
