@<TRIPOS>MOLECULE
molecule
   40    41     1     0     0
SMALL
bcc


@<TRIPOS>ATOM
      1 C01          0.0000     0.0000     0.0000 ca         1 4BM       0.205600
      2 C02          1.3890     0.0000     0.0000 ca         1 4BM      -0.181000
      3 C03          2.0780     0.0000     1.1980 ca         1 4BM      -0.065000
      4 C04          1.3870     0.0000     2.3960 ca         1 4BM       0.025900
      5 C05          0.0040     0.0000     2.4000 ca         1 4BM      -0.092000
      6 C06         -0.6920     0.0010     1.2060 ca         1 4BM       0.070900
      7 N07         -0.7010     0.0070    -1.2110 nu         1 4BM      -0.681000
      8 C08         -0.0130     0.1450    -2.4110 ca         1 4BM       0.190600
      9 C09          0.5790    -0.9740    -3.0180 ca         1 4BM      -0.138600
     10 C10          1.2680    -0.8240    -4.2250 ca         1 4BM      -0.098000
     11 C11          1.3640     0.4180    -4.8130 ca         1 4BM      -0.152000
     12 C12          0.7780     1.5240    -4.2120 ca         1 4BM       0.124900
     13 C13          0.0880     1.3900    -3.0200 ca         1 4BM       0.084900
     14 C14          0.4750    -2.3010    -2.3860 c          1 4BM       0.683700
     15 N15          1.1390    -3.3510    -2.9080 ns         1 4BM      -0.469400
     16 O16         -0.2110    -2.4490    -1.3920 o          1 4BM      -0.553100
     17 O17          1.0390    -4.6260    -2.3010 os         1 4BM      -0.169900
     18 C18          1.7940    -5.6450    -2.9600 c3         1 4BM       0.092400
     19 C19          1.6120    -6.9720    -2.2210 c3         1 4BM       0.159100
     20 C20          2.3180    -8.0870    -2.9960 c3         1 4BM       0.131400
     21 O21          2.1760    -6.8700    -0.9120 oh         1 4BM      -0.587800
     22 O22          2.0510    -9.3440    -2.3700 oh         1 4BM      -0.601800
     23 I23          2.4390    -0.0010     4.2080 i          1 4BM      -0.168900
     24 F24         -2.0440     0.0020     1.2110 f          1 4BM      -0.141900
     25 F25         -0.4840     2.4710    -2.4450 f          1 4BM      -0.109900
     26 F26          0.8780     2.7380    -4.7970 f          1 4BM      -0.116900
     27 H02          1.9310    -0.0000    -0.9380 ha         1 4BM       0.140000
     28 H03          3.1620    -0.0000     1.1990 ha         1 4BM       0.143000
     29 H05         -0.5340     0.0010     3.3400 ha         1 4BM       0.156000
     30 HN07        -1.7000    -0.0440    -1.2110 hn         1 4BM       0.474800
     31 H10          1.7260    -1.6840    -4.6980 ha         1 4BM       0.138000
     32 H11          1.9000     0.5320    -5.7470 ha         1 4BM       0.159000
     33 HN15         1.6970    -3.2310    -3.7300 hn         1 4BM       0.318500
     34 H18          1.4450    -5.7490    -3.9810 h1         1 4BM       0.040700
     35 H18A         2.8420    -5.3730    -2.9620 h1         1 4BM       0.040700
     36 H19          0.5560    -7.2000    -2.1430 h1         1 4BM       0.059700
     37 H20          3.3860    -7.9050    -2.9980 h1         1 4BM       0.030700
     38 H20A         1.9530    -8.1060    -4.0150 h1         1 4BM       0.030700
     39 HO21         1.5100    -7.0480    -0.2680 ho         1 4BM       0.419000
     40 HO22         2.3280   -10.0430    -2.9390 ho         1 4BM       0.407000
@<TRIPOS>BOND
     1     1     2 ar  
     2     1     6 ar  
     3     1     7 1   
     4     2     3 ar  
     5     3     4 ar  
     6     4     5 ar  
     7     4    23 1   
     8     5     6 ar  
     9     6    24 1   
    10     7     8 1   
    11     8     9 ar  
    12     8    13 ar  
    13     9    10 ar  
    14     9    14 1   
    15    10    11 ar  
    16    11    12 ar  
    17    12    13 ar  
    18    12    26 1   
    19    13    25 1   
    20    14    15 1   
    21    14    16 2   
    22    15    17 1   
    23    17    18 1   
    24    18    19 1   
    25    19    20 1   
    26    19    21 1   
    27    20    22 1   
    28     2    27 1   
    29     3    28 1   
    30     5    29 1   
    31     7    30 1   
    32    10    31 1   
    33    11    32 1   
    34    15    33 1   
    35    18    34 1   
    36    18    35 1   
    37    19    36 1   
    38    20    37 1   
    39    20    38 1   
    40    21    39 1   
    41    22    40 1   
@<TRIPOS>SUBSTRUCTURE
     1 4BM         1 TEMP              0 ****  ****    0 ROOT
