@<TRIPOS>MOLECULE
molecule
   41    42     1     0     0
SMALL
bcc


@<TRIPOS>ATOM
      1 C12          0.0000     0.0000     0.0000 ca         1 4BO      -0.096000
      2 C13          1.3800     0.0000     0.0000 ca         1 4BO      -0.174000
      3 C24          6.2620     1.1960     2.1860 ca         1 4BO      -0.109500
      4 C11         -0.6940     0.0060     1.2030 ca         1 4BO      -0.003400
      5 C14          2.0740     0.0000     1.2020 ca         1 4BO       0.142100
      6 C15          1.3810     0.0010     2.4040 ca         1 4BO      -0.174000
      7 O1          -6.9050    -0.4950     0.4710 o          1 4BO      -0.808300
      8 C4          -4.8940    -1.4990     1.1770 c3         1 4BO      -0.214400
      9 C7          -2.7700    -0.6370     0.2310 c          1 4BO       0.636100
     10 C5          -4.2720    -0.5390     0.1610 c3         1 4BO       0.051500
     11 C20          6.2620    -1.1980     2.1880 ca         1 4BO      -0.109500
     12 C21          7.6320    -1.1990     2.0070 ca         1 4BO      -0.118500
     13 C22          8.3170    -0.0030     1.9090 ca         1 4BO      -0.113000
     14 C23          7.6330     1.1950     2.0050 ca         1 4BO      -0.118500
     15 C19          5.5770    -0.0010     2.2770 ca         1 4BO      -0.127300
     16 C18          4.0830     0.0000     2.4750 c3         1 4BO       0.183700
     17 O17          3.4340    -0.0000     1.2020 os         1 4BO      -0.321900
     18 C16         -0.0010     0.0130     2.4040 ca         1 4BO      -0.096000
     19 N9          -2.0960     0.0070     1.2030 ns         1 4BO      -0.444100
     20 O8          -2.1680    -1.2980    -0.5900 o          1 4BO      -0.616100
     21 N6          -4.7260    -0.8940    -1.1900 nz         1 4BO      -0.789600
     22 O3          -7.1480    -2.0550     2.0180 o          1 4BO      -0.808300
     23 H12         -0.5420    -0.0030    -0.9380 ha         1 4BO       0.145500
     24 H13          1.9220    -0.0030    -0.9380 ha         1 4BO       0.148500
     25 H24          5.7260     2.1340     2.2580 ha         1 4BO       0.140500
     26 H15          1.9230     0.0040     3.3420 ha         1 4BO       0.148500
     27 H4          -4.6610    -2.5200     0.8980 hc         1 4BO       0.079700
     28 H4A         -4.4920    -1.2930     2.1620 hc         1 4BO       0.079700
     29 H5          -4.5780     0.4750     0.3900 hx         1 4BO       0.128700
     30 H20          5.3870    -1.8370     2.1870 ha         1 4BO       0.140500
     31 H21          8.1680    -2.1380     1.9340 ha         1 4BO       0.133500
     32 H22          9.3910    -0.0040     1.7670 ha         1 4BO       0.134000
     33 H23          8.1700     2.1330     1.9300 ha         1 4BO       0.133500
     34 H18          3.7920     0.8860     3.0280 h1         1 4BO       0.043200
     35 H18A         3.7910    -0.8830     3.0290 h1         1 4BO       0.043200
     36 H16         -0.5420     0.0160     3.3430 ha         1 4BO       0.145500
     37 HN9         -2.5960     0.5020     1.9150 hn         1 4BO       0.338500
     38 HN6         -4.1800    -0.3980    -1.8660 hn         1 4BO       0.458133
     39 HN6A        -4.6170    -1.8790    -1.3300 hn         1 4BO       0.458133
     40 H63         -5.6900    -0.6470    -1.2940 hn         1 4BO       0.458133
     41 C2          -6.3890    -1.3130     1.1960 c          1 4BO       0.874600
@<TRIPOS>BOND
     1     4     1 ar
     2     1     2 ar
     3     1    23 1
     4     5     2 ar
     5     2    24 1
     6    15     3 ar
     7     3    14 ar
     8     3    25 1
     9    19     4 1
    10    18     4 ar
    11     6     5 ar
    12     5    17 1
    13    18     6 ar
    14     6    26 1
    15     7    41 1
    16    41    22 1
    17    41     8 1
    18    10     8 1
    19     8    27 1
    20     8    28 1
    21    10     9 1
    22    20     9 2
    23     9    19 1
    24    10    21 1
    25    10    29 1
    26    15    11 ar
    27    11    12 ar
    28    11    30 1
    29    12    13 ar
    30    12    31 1
    31    14    13 ar
    32    13    32 1
    33    14    33 1
    34    16    15 1
    35    17    16 1
    36    16    34 1
    37    16    35 1
    38    18    36 1
    39    19    37 1
    40    21    38 1
    41    21    39 1
    42    40    21 1
@<TRIPOS>SUBSTRUCTURE
     1 4BO         1 TEMP              0 ****  ****    0 ROOT
