@<TRIPOS>MOLECULE
4BP
   28    29     1     0     0
SMALL
bcc


@<TRIPOS>ATOM
      1 C12        -0.0020    0.0190    0.0200 c3        1 4BP      0.038300
      2 C11         1.4760    0.0230    0.0150 ca        1 4BP     -0.089300
      3 C10         2.1860    0.4360    1.1490 ca        1 4BP     -0.112500
      4 C09         3.5780    0.4240    1.1500 ca        1 4BP     -0.117500
      5 C13         2.1810   -0.4000   -1.1180 ca        1 4BP     -0.112500
      6 C14         3.5730   -0.4090   -1.1180 ca        1 4BP     -0.117500
      7 C08         4.2870    0.0020    0.0170 cp        1 4BP     -0.031000
      8 C05         5.7480   -0.0090    0.0170 cp        1 4BP     -0.031000
      9 C04         6.4570   -0.4300    1.1510 ca        1 4BP     -0.117500
     10 C03         7.8480   -0.4420    1.1500 ca        1 4BP     -0.112500
     11 C06         6.4630    0.4030   -1.1180 ca        1 4BP     -0.117500
     12 C07         7.8540    0.3930   -1.1170 ca        1 4BP     -0.112500
     13 C02         8.5590   -0.0290    0.0170 ca        1 4BP     -0.089300
     14 C01        10.0370   -0.0250    0.0220 c3        1 4BP      0.038300
     15 H1         -0.4060   -0.7710   -0.6570 h1        1 4BP      0.079700
     16 H2         -0.4030   -0.1380    1.0500 h1        1 4BP      0.079700
     17 H4          1.6410    0.7760    2.0420 ha        1 4BP      0.137500
     18 H5          4.1270    0.7570    2.0450 ha        1 4BP      0.138500
     19 H6          1.6330   -0.7260   -2.0150 ha        1 4BP      0.137500
     20 H7          4.1180   -0.7500   -2.0120 ha        1 4BP      0.138500
     21 H8          5.9070   -0.7630    2.0460 ha        1 4BP      0.138500
     22 H9          8.3930   -0.7820    2.0440 ha        1 4BP      0.137500
     23 H10         5.9180    0.7420   -2.0120 ha        1 4BP      0.138500
     24 H11         8.4030    0.7190   -2.0130 ha        1 4BP      0.137500
     25 H12        10.4420    0.7640   -0.6550 h1        1 4BP      0.079700
     26 H13        10.4370    0.1320    1.0520 h1        1 4BP      0.079700
     27 BR1        10.7920   -1.6950   -0.5940 br        1 4BP     -0.170400
     28 BR2        -0.7570    1.6880   -0.5980 br        1 4BP     -0.170400
@<TRIPOS>BOND
     1    1    2 1   
     2    1   15 1   
     3    1   16 1   
     4    1   28 1   
     5    2    3 ar  
     6    2    5 ar  
     7    3    4 ar  
     8    3   17 1   
     9    4    7 ar  
    10    4   18 1   
    11    5    6 ar  
    12    5   19 1   
    13    6    7 ar  
    14    6   20 1   
    15    7    8 1   
    16    8    9 ar  
    17    8   11 ar  
    18    9   10 ar  
    19    9   21 1   
    20   10   13 ar  
    21   10   22 1   
    22   11   12 ar  
    23   11   23 1   
    24   12   13 ar  
    25   12   24 1   
    26   13   14 1   
    27   14   25 1   
    28   14   26 1   
    29   14   27 1   
@<TRIPOS>SUBSTRUCTURE
     1 4BP         1 TEMP              0 ****  ****    0 ROOT
