@<TRIPOS>MOLECULE
molecule
   28    29     1     0     0
SMALL
bcc


@<TRIPOS>ATOM
      1 C12          0.0000     0.0000     0.0000 c3         1 4BP       0.052800
      2 C11          1.5070     0.0000     0.0000 ca         1 4BP      -0.095300
      3 C10          2.1960     0.0000     1.1990 ca         1 4BP      -0.110000
      4 C09          3.5770     0.0000     1.2050 ca         1 4BP      -0.117000
      5 C13          2.1960    -0.0070    -1.2000 ca         1 4BP      -0.110000
      6 C14          3.5760    -0.0080    -1.2060 ca         1 4BP      -0.117000
      7 C08          4.2750    -0.0010    -0.0010 cp         1 4BP      -0.030000
      8 C05          5.7600    -0.0020    -0.0010 cp         1 4BP      -0.030000
      9 C04          6.4590    -0.0060     1.2030 ca         1 4BP      -0.117000
     10 C03          7.8390    -0.0070     1.1970 ca         1 4BP      -0.110000
     11 C06          6.4580    -0.0020    -1.2070 ca         1 4BP      -0.117000
     12 C07          7.8390    -0.0030    -1.2020 ca         1 4BP      -0.110000
     13 C02          8.5280    -0.0020    -0.0030 ca         1 4BP      -0.095300
     14 C01         10.0350    -0.0020    -0.0030 c3         1 4BP       0.052800
     15 H1          -0.3610    -0.5110    -0.8840 h1         1 4BP       0.076700
     16 H2          -0.3610    -0.5100     0.8850 h1         1 4BP       0.076700
     17 H4           1.6520     0.0010     2.1360 ha         1 4BP       0.136000
     18 H5           4.1160     0.0030     2.1440 ha         1 4BP       0.136750
     19 H6           1.6510    -0.0130    -2.1360 ha         1 4BP       0.136000
     20 H7           4.1150    -0.0120    -2.1470 ha         1 4BP       0.136750
     21 H8           5.9200    -0.0100     2.1430 ha         1 4BP       0.136750
     22 H9           8.3840    -0.0080     2.1340 ha         1 4BP       0.136000
     23 H10          5.9190    -0.0030    -2.1470 ha         1 4BP       0.136750
     24 H11          8.3830    -0.0010    -2.1380 ha         1 4BP       0.136000
     25 H12         10.3960     0.5120    -0.8850 h1         1 4BP       0.076700
     26 H13         10.3960     0.5050     0.8840 h1         1 4BP       0.076700
     27 Br1         10.6910    -1.8560    -0.0100 br         1 4BP      -0.173400
     28 Br2         -0.6550     1.8530    -0.0000 br         1 4BP      -0.173400
@<TRIPOS>BOND
     1     1     2 1   
     2     2     3 ar  
     3     2     5 ar  
     4     3     4 ar  
     5     5     6 ar  
     6     4     7 ar  
     7     6     7 ar  
     8     7     8 1   
     9     8    11 ar  
    10     8     9 ar  
    11    11    12 ar  
    12     9    10 ar  
    13    12    13 ar  
    14    10    13 ar  
    15    13    14 1   
    16     1    15 1   
    17     1    16 1   
    18     3    17 1   
    19     4    18 1   
    20     5    19 1   
    21     6    20 1   
    22     9    21 1   
    23    10    22 1   
    24    11    23 1   
    25    12    24 1   
    26    14    25 1   
    27    14    26 1   
    28    14    27 1   
    29     1    28 1   
@<TRIPOS>SUBSTRUCTURE
     1 4BP         1 TEMP              0 ****  ****    0 ROOT
