@<TRIPOS>MOLECULE
molecule
   44    45     1     0     0
SMALL
bcc


@<TRIPOS>ATOM
      1 C21          0.0000     0.0000     0.0000 ca         1 4BQ      -0.102500
      2 C22          1.3820     0.0000     0.0000 ca         1 4BQ      -0.131500
      3 C23          2.0740     0.0000     1.1980 ca         1 4BQ      -0.116000
      4 C24          1.3820     0.0000     2.3950 ca         1 4BQ      -0.131500
      5 C25         -0.0000     0.0000     2.3940 ca         1 4BQ      -0.102500
      6 C20         -0.6910     0.0060     1.1970 ca         1 4BQ      -0.097300
      7 C19         -2.1990     0.0050     1.1970 c3         1 4BQ       0.186700
      8 O18         -2.6740    -1.3420     1.2040 os         1 4BQ      -0.320900
      9 C15         -4.0220    -1.5200     1.2040 ca         1 4BQ       0.134100
     10 C16         -4.5520    -2.8020     1.2100 ca         1 4BQ      -0.174000
     11 C17         -5.9200    -2.9840     1.2120 ca         1 4BQ      -0.103000
     12 C14         -4.8670    -0.4200     1.2040 ca         1 4BQ      -0.174000
     13 C13         -6.2360    -0.6010     1.2060 ca         1 4BQ      -0.103000
     14 C12         -6.7670    -1.8830     1.2060 ca         1 4BQ       0.007600
     15 N10         -8.1560    -2.0670     1.2070 ns         1 4BQ      -0.475100
     16 C8          -8.6960    -3.1200     1.8530 c          1 4BQ       0.657100
     17 O9          -7.9910    -3.8530     2.5120 o          1 4BQ      -0.573100
     18 C7         -10.1770    -3.3850     1.7540 c3         1 4BQ      -0.180400
     19 C6         -10.5270    -4.6290     2.5740 c3         1 4BQ      -0.073400
     20 C4         -12.0290    -4.8980     2.4750 c3         1 4BQ      -0.022500
     21 C2         -12.3560    -6.1900     3.1790 c          1 4BQ       0.871600
     22 O3         -12.1400    -7.3630     2.5640 o          1 4BQ      -0.772300
     23 O1         -12.8130    -6.1700     4.2970 o          1 4BQ      -0.772300
     24 N5         -12.7680    -3.7960     3.1070 nz         1 4BQ      -0.792600
     25 H21         -0.5420     0.0020    -0.9380 ha         1 4BQ       0.133500
     26 H22          1.9240    -0.0020    -0.9380 ha         1 4BQ       0.132500
     27 H23          3.1570     0.0000     1.1980 ha         1 4BQ       0.131000
     28 H24          1.9230    -0.0020     3.3330 ha         1 4BQ       0.132500
     29 H25         -0.5420     0.0020     3.3320 ha         1 4BQ       0.133500
     30 H19         -2.5600     0.5210     2.0790 h1         1 4BQ       0.040200
     31 H19A        -2.5600     0.5110     0.3100 h1         1 4BQ       0.040200
     32 H16         -3.8910    -3.6610     1.2150 ha         1 4BQ       0.145000
     33 H17         -6.3340    -3.9850     1.2140 ha         1 4BQ       0.146500
     34 H14         -4.4530     0.5810     1.2040 ha         1 4BQ       0.145000
     35 H13         -6.8960     0.2580     1.2030 ha         1 4BQ       0.146500
     36 HN10        -8.7450    -1.4280     0.7110 hn         1 4BQ       0.318500
     37 H7         -10.7230    -2.5330     2.1400 hc         1 4BQ       0.047200
     38 H7A        -10.4460    -3.5480     0.7180 hc         1 4BQ       0.047200
     39 H6         -10.2570    -4.4670     3.6100 hc         1 4BQ       0.103200
     40 H6A         -9.9810    -5.4820     2.1880 hc         1 4BQ       0.103200
     41 H4         -12.3140    -4.9730     1.4330 hx         1 4BQ       0.101700
     42 HN5        -12.8490    -3.0360     2.4610 hn         1 4BQ       0.438467
     43 HN5A       -13.6810    -4.1120     3.3660 hn         1 4BQ       0.438467
     44 H53        -12.2760    -3.4890     3.9230 hn         1 4BQ       0.438467
@<TRIPOS>BOND
     1     6     1 ar  
     2     1     2 ar  
     3     1    25 1   
     4     2     3 ar  
     5     2    26 1   
     6     4     3 ar  
     7     3    27 1   
     8     5     4 ar  
     9     4    28 1   
    10     6     5 ar  
    11     5    29 1   
    12     7     6 1   
    13     8     7 1   
    14     7    30 1   
    15     7    31 1   
    16     9     8 1   
    17    10     9 ar  
    18    12     9 ar  
    19    11    10 ar  
    20    10    32 1   
    21    14    11 ar  
    22    11    33 1   
    23    13    12 ar  
    24    12    34 1   
    25    14    13 ar  
    26    13    35 1   
    27    15    14 1   
    28    16    15 1   
    29    15    36 1   
    30    18    16 1   
    31    16    17 2   
    32    18    19 1   
    33    18    37 1   
    34    18    38 1   
    35    20    19 1   
    36    19    39 1   
    37    19    40 1   
    38    24    20 1   
    39    20    21 1   
    40    20    41 1   
    41    22    21 1   
    42    21    23 1   
    43    24    42 1   
    44    24    43 1   
    45    44    24 1   
@<TRIPOS>SUBSTRUCTURE
     1 4BQ         1 TEMP              0 ****  ****    0 ROOT
