@<TRIPOS>MOLECULE
4BQ
   44    45     1     0     0
SMALL
bcc


@<TRIPOS>ATOM
      1 C21          0.0000     0.0000     0.0000 ca         1 4BQ      -0.074500
      2 C22          1.3820     0.0000     0.0000 ca         1 4BQ      -0.104500
      3 C23          2.0740     0.0000     1.1980 ca         1 4BQ      -0.089000
      4 C24          1.3820     0.0000     2.3950 ca         1 4BQ      -0.104500
      5 C25         -0.0000     0.0000     2.3940 ca         1 4BQ      -0.074500
      6 C20         -0.6910     0.0060     1.1970 ca         1 4BQ      -0.115300
      7 C19         -2.1990     0.0050     1.1970 c3         1 4BQ       0.262700
      8 O18         -2.6740    -1.3420     1.2040 os         1 4BQ      -0.296900
      9 C15         -4.0220    -1.5200     1.2040 ca         1 4BQ       0.148100
     10 C16         -4.5520    -2.8020     1.2100 ca         1 4BQ      -0.159500
     11 C17         -5.9200    -2.9840     1.2120 ca         1 4BQ      -0.068000
     12 C14         -4.8670    -0.4200     1.2040 ca         1 4BQ      -0.159500
     13 C13         -6.2360    -0.6010     1.2060 ca         1 4BQ      -0.068000
     14 C12         -6.7670    -1.8830     1.2060 ca         1 4BQ      -0.145400
     15 N10         -8.1560    -2.0670     1.2070 ns         1 4BQ      -0.026100
     16 C8          -8.6960    -3.1200     1.8530 c          1 4BQ       0.555100
     17 O9          -7.9910    -3.8530     2.5120 o          1 4BQ      -0.612100
     18 C7         -10.1770    -3.3850     1.7540 c3         1 4BQ      -0.120400
     19 C6         -10.5270    -4.6290     2.5740 c3         1 4BQ      -0.006400
     20 C4         -12.0290    -4.8980     2.4750 c3         1 4BQ      -0.206500
     21 C2         -12.3560    -6.1900     3.1790 c          1 4BQ       0.958600
     22 O3         -12.1400    -7.3630     2.5640 o          1 4BQ      -0.815800
     23 O1         -12.8130    -6.1700     4.2970 o          1 4BQ      -0.815800
     24 N5         -12.7680    -3.7960     3.1070 nz         1 4BQ       0.078400
     25 H21         -0.5420     0.0020    -0.9380 ha         1 4BQ       0.106500
     26 H22          1.9240    -0.0020    -0.9380 ha         1 4BQ       0.104500
     27 H23          3.1570     0.0000     1.1980 ha         1 4BQ       0.103000
     28 H24          1.9230    -0.0020     3.3330 ha         1 4BQ       0.104500
     29 H25         -0.5420     0.0020     3.3320 ha         1 4BQ       0.106500
     30 H19         -2.5600     0.5210     2.0790 h1         1 4BQ       0.003200
     31 H19A        -2.5600     0.5110     0.3100 h1         1 4BQ       0.003200
     32 H16         -3.8910    -3.6610     1.2150 ha         1 4BQ       0.122000
     33 H17         -6.3340    -3.9850     1.2140 ha         1 4BQ       0.120500
     34 H14         -4.4530     0.5810     1.2040 ha         1 4BQ       0.122000
     35 H13         -6.8960     0.2580     1.2030 ha         1 4BQ       0.120500
     36 HN10        -8.7450    -1.4280     0.7110 hn         1 4BQ       0.159500
     37 H7         -10.7230    -2.5330     2.1400 hc         1 4BQ       0.015200
     38 H7A        -10.4460    -3.5480     0.7180 hc         1 4BQ       0.015200
     39 H6         -10.2570    -4.4670     3.6100 hc         1 4BQ       0.070200
     40 H6A         -9.9810    -5.4820     2.1880 hc         1 4BQ       0.070200
     41 H4         -12.3140    -4.9730     1.4330 hx         1 4BQ       0.083700
     42 HN5        -12.8490    -3.0360     2.4610 hn         1 4BQ       0.210467
     43 HN5A       -13.6810    -4.1120     3.3660 hn         1 4BQ       0.210467
     44 H53        -12.2760    -3.4890     3.9230 hn         1 4BQ       0.210467
@<TRIPOS>BOND
     1     1     2 ar  
     2     1     6 ar  
     3     1    25 1   
     4     2     3 ar  
     5     2    26 1   
     6     3     4 ar  
     7     3    27 1   
     8     4     5 ar  
     9     4    28 1   
    10     5     6 ar  
    11     5    29 1   
    12     6     7 1   
    13     7     8 1   
    14     7    30 1   
    15     7    31 1   
    16     8     9 1   
    17     9    10 ar  
    18     9    12 ar  
    19    10    11 ar  
    20    10    32 1   
    21    11    14 ar  
    22    11    33 1   
    23    12    13 ar  
    24    12    34 1   
    25    13    14 ar  
    26    13    35 1   
    27    14    15 1   
    28    15    16 1   
    29    15    36 1   
    30    16    17 2   
    31    16    18 1   
    32    18    19 1   
    33    18    37 1   
    34    18    38 1   
    35    19    20 1   
    36    19    39 1   
    37    19    40 1   
    38    20    21 1   
    39    20    24 1   
    40    20    41 1   
    41    21    22 1   
    42    21    23 1   
    43    24    42 1   
    44    24    43 1   
    45    24    44 1   
@<TRIPOS>SUBSTRUCTURE
     1 4BQ         1 TEMP              0 ****  ****    0 ROOT
