@<TRIPOS>MOLECULE
molecule
   25    25     1     0     0
SMALL
bcc


@<TRIPOS>ATOM
      1 CA1          0.0000     0.0000     0.0000 ca         1 4BR      -0.174000
      2 CB1          1.3950     0.0000     0.0000 ca         1 4BR      -0.103500
      3 CG1          2.0920     0.0000     1.2070 ca         1 4BR      -0.136300
      4 CD           1.3950    -0.0000     2.4160 ca         1 4BR      -0.103500
      5 CG2          0.0010    -0.0000     2.4160 ca         1 4BR      -0.174000
      6 CB2         -0.6980    -0.0000     1.2090 ca         1 4BR       0.162100
      7 O           -2.0580     0.0010     1.2090 os         1 4BR      -0.340900
      8 CZ2         -2.7080    -0.6330     2.3080 c3         1 4BR       0.164400
      9 CA2         -4.0410    -1.1860     1.8420 c3         1 4BR      -0.288600
     10 P           -3.8580    -2.3970     0.5100 p5         1 4BR       1.094600
     11 OP1         -2.9380    -3.4780     1.0620 o          1 4BR      -0.834500
     12 OP2         -5.2740    -2.7860     0.1100 o          1 4BR      -0.834500
     13 CH2          3.5840     0.0000     1.2070 c3         1 4BR      -0.036800
     14 HA1         -0.5420     0.0000    -0.9380 ha         1 4BR       0.141500
     15 HB1          1.9360     0.0000    -0.9380 ha         1 4BR       0.120000
     16 HD           1.9370    -0.0000     3.3540 ha         1 4BR       0.120000
     17 HG2         -0.5410    -0.0010     3.3540 ha         1 4BR       0.141500
     18 HZ21        -2.0890    -1.4420     2.6770 h1         1 4BR       0.030200
     19 HZ22        -2.8710     0.0890     3.0990 h1         1 4BR       0.030200
     20 HA21        -4.6560    -0.3660     1.4880 hc         1 4BR       0.063700
     21 HA22        -4.5370    -1.6590     2.6810 hc         1 4BR       0.063700
     22 HH21         3.9450     0.8870     1.7140 hc         1 4BR       0.031700
     23 HH22         3.9450    -0.0040     0.1860 hc         1 4BR       0.031700
     24 HH23         3.9450    -0.8820     1.7210 hc         1 4BR       0.031700
     25 HP1         -3.2300    -1.8060    -0.6000 hp         1 4BR      -0.199400
@<TRIPOS>BOND
     1     1     2 ar
     2     1     6 ar
     3     1    14 1
     4     2     3 ar
     5     2    15 1
     6     3     4 ar
     7     3    13 1
     8     4     5 ar
     9     4    16 1
    10     5     6 ar
    11     5    17 1
    12     6     7 1
    13     7     8 1
    14     8     9 1
    15     8    18 1
    16     8    19 1
    17     9    10 1
    18     9    20 1
    19     9    21 1
    20    10    11 1
    21    10    12 1
    22    13    22 1
    23    13    23 1
    24    13    24 1
    25    25    10 1
@<TRIPOS>SUBSTRUCTURE
     1 4BR         1 TEMP              0 ****  ****    0 ROOT
