@<TRIPOS>MOLECULE
4BR
   25    25     1     0     0
SMALL
bcc


@<TRIPOS>ATOM
      1 CA1         0.2310    0.5220   -0.0390 ca        1 4BR     -0.192500
      2 CB1         1.5930    0.7280    0.1180 ca        1 4BR     -0.098000
      3 CG1         2.2730    0.2320    1.2390 ca        1 4BR     -0.146300
      4 CD          1.5570   -0.4810    2.2050 ca        1 4BR     -0.098000
      5 CG2         0.1880   -0.7000    2.0690 ca        1 4BR     -0.192500
      6 CB2        -0.4830   -0.1980    0.9440 ca        1 4BR      0.155100
      7 O          -1.8220   -0.3480    0.6990 os        1 4BR     -0.340900
      8 CZ2        -2.5840   -1.0470    1.7130 c3        1 4BR      0.163400
      9 CA2        -3.9970   -1.1160    1.2240 c3        1 4BR     -0.340600
     10 P          -4.7020   -2.6150    1.6840 p5        1 4BR      1.263600
     11 OP1        -3.9400   -3.1810    2.8260 o         1 4BR     -0.878000
     12 OP2        -6.1730   -2.4470    1.7400 o         1 4BR     -0.878000
     13 CH2         3.7270    0.4670    1.3860 c3        1 4BR     -0.034800
     14 HA1        -0.3070    0.9060   -0.9160 ha        1 4BR      0.148000
     15 HB1         2.1510    1.2870   -0.6480 ha        1 4BR      0.118500
     16 HD          2.0790   -0.8790    3.0880 ha        1 4BR      0.118500
     17 HG2        -0.3530   -1.2700    2.8370 ha        1 4BR      0.148000
     18 HZ21       -2.4830   -0.4700    2.6730 h1        1 4BR      0.052700
     19 HZ22       -2.1610   -2.0800    1.8500 h1        1 4BR      0.052700
     20 HA21       -4.5990   -0.2750    1.6420 hc        1 4BR      0.073700
     21 HA22       -4.0250   -0.9960    0.1140 hc        1 4BR      0.073700
     22 HH21        3.9380    1.5620    1.4660 hc        1 4BR      0.030367
     23 HH22        4.1290   -0.0350    2.3000 hc        1 4BR      0.030367
     24 HH23        4.2780    0.0710    0.4970 hc        1 4BR      0.030367
     25 HP1        -4.3830   -3.3000    0.5870 hp        1 4BR     -0.257400
@<TRIPOS>BOND
     1    1    2 ar  
     2    1    6 ar  
     3    1   14 1   
     4    2    3 ar  
     5    2   15 1   
     6    3    4 ar  
     7    3   13 1   
     8    4    5 ar  
     9    4   16 1   
    10    5    6 ar  
    11    5   17 1   
    12    6    7 1   
    13    7    8 1   
    14    8    9 1   
    15    8   18 1   
    16    8   19 1   
    17    9   10 1   
    18    9   20 1   
    19    9   21 1   
    20   10   11 1   
    21   10   12 1   
    22   10   25 1   
    23   13   22 1   
    24   13   23 1   
    25   13   24 1   
@<TRIPOS>SUBSTRUCTURE
     1 4BR         1 TEMP              0 ****  ****    0 ROOT
