@<TRIPOS>MOLECULE
4BS
   42    43     1     0     0
SMALL
bcc


@<TRIPOS>ATOM
      1 N1           0.0000     0.0000     0.0000 nz         1 4BS       0.089400
      2 C2           1.4690     0.0000     0.0000 c3         1 4BS      -0.057200
      3 C3           1.9790     0.0000     1.4420 c3         1 4BS      -0.020400
      4 C4           3.5100     0.0000     1.4430 c3         1 4BS      -0.092400
      5 C5           4.0120     0.0000     2.8640 c          1 4BS       0.549100
      6 O6           3.2240     0.0000     3.7850 o          1 4BS      -0.646100
      7 N7           5.3370     0.0000     3.1100 ns         1 4BS       0.012900
      8 C9           5.8050     0.0980     4.4270 ca         1 4BS      -0.176400
      9 C10          5.0990    -0.5030     5.4600 ca         1 4BS      -0.060500
     10 C11          5.5610    -0.4070     6.7590 ca         1 4BS      -0.161000
     11 C12          6.7300     0.2900     7.0290 ca         1 4BS       0.166100
     12 C13          7.4350     0.8920     5.9970 ca         1 4BS      -0.161000
     13 C14          6.9770     0.7910     4.6980 ca         1 4BS      -0.060500
     14 O15          7.1830     0.3850     8.3080 os         1 4BS      -0.294900
     15 C16          8.3930     1.1170     8.5140 c3         1 4BS       0.264700
     16 C17          8.7380     1.1150     9.9810 ca         1 4BS      -0.122300
     17 C18          9.5310     0.1100    10.5020 ca         1 4BS      -0.075000
     18 C19          9.8470     0.1070    11.8490 ca         1 4BS      -0.102000
     19 C20          9.3720     1.1090    12.6720 ca         1 4BS      -0.083000
     20 C21          8.5800     2.1160    12.1500 ca         1 4BS      -0.102000
     21 C22          8.2670     2.1210    10.8040 ca         1 4BS      -0.075000
     22 HN1         -0.3340    -0.8170     0.4720 hn         1 4BS       0.224467
     23 HN1A        -0.3340     0.8170     0.4720 hn         1 4BS       0.224467
     24 H2           1.8300    -0.8850    -0.5110 hx         1 4BS       0.082700
     25 H2A          1.8300     0.8850    -0.5110 hx         1 4BS       0.082700
     26 H3           1.6180     0.8840     1.9530 hc         1 4BS       0.050200
     27 H3A          1.6180    -0.8850     1.9530 hc         1 4BS       0.050200
     28 H4           3.8710    -0.8840     0.9320 hc         1 4BS       0.036700
     29 H4A          3.8710     0.8850     0.9320 hc         1 4BS       0.036700
     30 HN7          5.9860    -0.1050     2.3550 hn         1 4BS       0.163500
     31 H10          4.1870    -1.0470     5.2480 ha         1 4BS       0.120000
     32 H11          5.0100    -0.8760     7.5650 ha         1 4BS       0.127000
     33 H13          8.3480     1.4340     6.2090 ha         1 4BS       0.127000
     34 H14          7.5270     1.2610     3.8910 ha         1 4BS       0.120000
     35 H16          9.1960     0.6540     7.9540 h1         1 4BS       0.004700
     36 H16A         8.2600     2.1380     8.1760 h1         1 4BS       0.004700
     37 H18          9.9040    -0.6760     9.8570 ha         1 4BS       0.105000
     38 H19         10.4680    -0.6820    12.2570 ha         1 4BS       0.107000
     39 H20          9.6180     1.1060    13.7270 ha         1 4BS       0.106000
     40 H21          8.2100     2.9030    12.7950 ha         1 4BS       0.107000
     41 H22          7.6470     2.9090    10.3950 ha         1 4BS       0.105000
     42 H131        -0.3340    -0.0100    -0.9440 hn         1 4BS       0.224467
@<TRIPOS>BOND
     1     1     2 1   
     2     1    22 1   
     3     1    23 1   
     4     1    42 1   
     5     2     3 1   
     6     2    24 1   
     7     2    25 1   
     8     3     4 1   
     9     3    26 1   
    10     3    27 1   
    11     4     5 1   
    12     4    28 1   
    13     4    29 1   
    14     5     6 2   
    15     5     7 1   
    16     7     8 1   
    17     7    30 1   
    18     8     9 ar  
    19     8    13 ar  
    20     9    10 ar  
    21     9    31 1   
    22    10    11 ar  
    23    10    32 1   
    24    11    12 ar  
    25    11    14 1   
    26    12    13 ar  
    27    12    33 1   
    28    13    34 1   
    29    14    15 1   
    30    15    16 1   
    31    15    35 1   
    32    15    36 1   
    33    16    17 ar  
    34    16    21 ar  
    35    17    18 ar  
    36    17    37 1   
    37    18    19 ar  
    38    18    38 1   
    39    19    20 ar  
    40    19    39 1   
    41    20    21 ar  
    42    20    40 1   
    43    21    41 1   
@<TRIPOS>SUBSTRUCTURE
     1 4BS         1 TEMP              0 ****  ****    0 ROOT
