@<TRIPOS>MOLECULE
4BT
   38    38     1     0     0
SMALL
bcc


@<TRIPOS>ATOM
      1 CA           0.0000     0.0000     0.0000 c3         1 4BT       0.115700
      2 CB           1.5290     0.0000     0.0000 c3         1 4BT       0.048900
      3 C4           2.9540     1.3450     3.7940 ca         1 4BT      -0.095300
      4 C5           2.7230     0.0000     3.5810 ca         1 4BT      -0.086750
      5 C6           2.2620    -0.4360     2.3530 ca         1 4BT      -0.086750
      6 C1           2.0320     0.4740     1.3400 ca         1 4BT      -0.095300
      7 C2           2.2620     1.8200     1.5540 ca         1 4BT      -0.086750
      8 C3           2.7190     2.2560     2.7830 ca         1 4BT      -0.086750
      9 CC           4.9860     1.8190     5.1340 c3         1 4BT       0.115700
     10 N1'          8.2020     2.6460     7.4710 nz         1 4BT       0.153400
     11 C'           7.3270     2.2920     6.4700 c2         1 4BT       0.177100
     12 S'           5.5900     2.3890     6.7420 ss         1 4BT      -0.201300
     13 N2'          7.7850     1.8820     5.3190 n2         1 4BT      -0.490100
     14 N1          -3.2150    -0.8280    -2.3380 nz         1 4BT       0.153400
     15 S           -0.6030    -0.5710    -1.6080 ss         1 4BT      -0.201300
     16 N2          -2.7980    -0.0650    -0.1850 n2         1 4BT      -0.490100
     17 HCA1        -0.3610     1.0040     0.1860 h1         1 4BT       0.061950
     18 HCA2        -0.3610    -0.6630     0.7770 h1         1 4BT       0.061950
     19 HCB1         1.8910     0.6630    -0.7770 hc         1 4BT       0.038200
     20 HCB2         1.8910    -1.0040    -0.1860 hc         1 4BT       0.038200
     21 H51          2.8760    -0.7100     4.3850 ha         1 4BT       0.115750
     22 H61          2.1150    -1.4940     2.1740 ha         1 4BT       0.115750
     23 H21          2.1070     2.5310     0.7510 ha         1 4BT       0.115750
     24 H31          2.7510     3.3390     2.7820 ha         1 4BT       0.115750
     25 HCD1         3.0960     2.8240     5.3190 hc         1 4BT       0.038200
     26 HCD2         3.0950     1.1570     5.9110 hc         1 4BT       0.038200
     27 HCC1         5.3480     2.4810     4.3570 h1         1 4BT       0.061950
     28 HCC2         5.3470     0.8140     4.9490 h1         1 4BT       0.061950
     29 H1'1         7.6860     2.9330     8.2790 hn         1 4BT       0.229300
     30 H1'2         8.7790     3.4020     7.1580 hn         1 4BT       0.229300
     31 HN2'         8.7720     1.8260     5.1630 hn         1 4BT       0.346400
     32 HN11        -3.7910    -1.5840    -2.0250 hn         1 4BT       0.229300
     33 HN12        -2.7020    -1.1120    -3.1490 hn         1 4BT       0.229300
     34 HN21        -3.7850    -0.0090    -0.0290 hn         1 4BT       0.346400
     35 H1'3         8.7780     1.8620     7.7050 hn         1 4BT       0.229300
     36 H13         -3.7910    -0.0410    -2.5650 hn         1 4BT       0.229300
     37 CD           3.4570     1.8200     5.1340 c3         1 4BT       0.048900
     38 C           -2.3400    -0.4730    -1.3370 c2         1 4BT       0.177100
@<TRIPOS>BOND
     1     1     2 1   
     2     1    15 1   
     3     1    17 1   
     4     1    18 1   
     5     2     6 1   
     6     2    19 1   
     7     2    20 1   
     8     3     4 ar  
     9     3     8 ar  
    10     3    37 1   
    11     4     5 ar  
    12     4    21 1   
    13     5     6 ar  
    14     5    22 1   
    15     6     7 ar  
    16     7     8 ar  
    17     7    23 1   
    18     8    24 1   
    19     9    12 1   
    20     9    27 1   
    21     9    28 1   
    22     9    37 1   
    23    10    11 1   
    24    10    29 1   
    25    10    30 1   
    26    10    35 1   
    27    11    12 1   
    28    11    13 2   
    29    13    31 1   
    30    14    32 1   
    31    14    33 1   
    32    14    36 1   
    33    14    38 1   
    34    15    38 1   
    35    16    34 1   
    36    16    38 2   
    37    25    37 1   
    38    26    37 1   
@<TRIPOS>SUBSTRUCTURE
     1 4BT         1 TEMP              0 ****  ****    0 ROOT
