@<TRIPOS>MOLECULE
molecule
   48    49     1     0     0
SMALL
bcc


@<TRIPOS>ATOM
      1 O9           0.0000     0.0000     0.0000 o          1 4BU      -0.576100
      2 C8           1.2130     0.0000     0.0000 c          1 4BU       0.658100
      3 C7           1.9660     0.0000     1.3050 c3         1 4BU      -0.180400
      4 C6           0.9710    -0.0010     2.4680 c3         1 4BU      -0.073400
      5 C4           1.7340    -0.0010     3.7930 c3         1 4BU      -0.022500
      6 N5           2.4870    -1.2560     3.9250 nz         1 4BU      -0.793600
      7 C2           0.7600     0.1230     4.9360 c          1 4BU       0.870600
      8 O3           0.2580     1.3250     5.2630 o          1 4BU      -0.772300
      9 O1           0.4290    -0.8590     5.5570 o          1 4BU      -0.772300
     10 N10          1.8870    -0.0060    -1.1670 ns         1 4BU      -0.474100
     11 C12          1.1910    -0.1090    -2.3780 ca         1 4BU       0.002600
     12 C13          1.7420    -0.8170    -3.4380 ca         1 4BU      -0.101500
     13 C14          1.0560    -0.9190    -4.6320 ca         1 4BU      -0.175500
     14 C15         -0.1850    -0.3150    -4.7720 ca         1 4BU       0.138100
     15 C16         -0.7370     0.3920    -3.7130 ca         1 4BU      -0.175500
     16 C17         -0.0530     0.4910    -2.5170 ca         1 4BU      -0.101500
     17 O18         -0.8610    -0.4160    -5.9470 os         1 4BU      -0.329900
     18 C19         -2.1330     0.2310    -6.0210 c3         1 4BU       0.132400
     19 C20         -2.7390     0.0090    -7.4090 c3         1 4BU       0.200400
     20 O21         -3.0090    -1.3810    -7.5940 oh         1 4BU      -0.594800
     21 C23         -4.0210     0.7920    -7.5290 ca         1 4BU      -0.119300
     22 C24         -5.1870     0.2970    -6.9750 ca         1 4BU      -0.107000
     23 C25         -6.3620     1.0140    -7.0850 ca         1 4BU      -0.131500
     24 C26         -6.3740     2.2270    -7.7500 ca         1 4BU      -0.119000
     25 C27         -5.2070     2.7210    -8.3030 ca         1 4BU      -0.131500
     26 C28         -4.0300     2.0060    -8.1900 ca         1 4BU      -0.107000
     27 H7           2.5890    -0.8840     1.3630 hc         1 4BU       0.047700
     28 H7A          2.5890     0.8850     1.3630 hc         1 4BU       0.047700
     29 H6           0.3490    -0.8860     2.4100 hc         1 4BU       0.103200
     30 H6A          0.3480     0.8830     2.4110 hc         1 4BU       0.103200
     31 H4           2.4220     0.8360     3.8130 hx         1 4BU       0.101700
     32 HN5          3.3450    -1.1850     3.4150 hn         1 4BU       0.438467
     33 HN5A         1.9430    -2.0110     3.5590 hn         1 4BU       0.438467
     34 HN10         2.8840     0.0800    -1.1690 hn         1 4BU       0.318500
     35 H13          2.7110    -1.2880    -3.3280 ha         1 4BU       0.148500
     36 H14          1.4860    -1.4710    -5.4580 ha         1 4BU       0.145000
     37 H16         -1.7070     0.8620    -3.8220 ha         1 4BU       0.145000
     38 H17         -0.4830     1.0430    -1.6910 ha         1 4BU       0.148500
     39 H19         -2.7930    -0.1840    -5.2690 h1         1 4BU       0.051200
     40 H19A        -2.0090     1.2930    -5.8470 h1         1 4BU       0.051200
     41 H20         -2.0390     0.3440    -8.1650 h1         1 4BU       0.047700
     42 HO21        -2.6170    -1.6740    -8.4000 ho         1 4BU       0.409000
     43 H24         -5.1780    -0.6530    -6.4540 ha         1 4BU       0.138000
     44 H25         -7.2760     0.6260    -6.6510 ha         1 4BU       0.132500
     45 H26         -7.2960     2.7880    -7.8370 ha         1 4BU       0.131000
     46 H27         -5.2150     3.6720    -8.8220 ha         1 4BU       0.132500
     47 H28         -3.1160     2.3940    -8.6240 ha         1 4BU       0.138000
     48 H53          2.6770    -1.4310     4.8920 hn         1 4BU       0.438467
@<TRIPOS>BOND
     1     2     1 2   
     2     3     2 1   
     3     2    10 1   
     4     3     4 1   
     5     3    27 1   
     6     3    28 1   
     7     5     4 1   
     8     4    29 1   
     9     4    30 1   
    10     6     5 1   
    11     5     7 1   
    12     5    31 1   
    13     6    32 1   
    14     6    33 1   
    15     8     7 1   
    16     7     9 1   
    17    10    11 1   
    18    10    34 1   
    19    11    16 ar  
    20    11    12 ar  
    21    12    13 ar  
    22    12    35 1   
    23    14    13 ar  
    24    13    36 1   
    25    15    14 ar  
    26    14    17 1   
    27    16    15 ar  
    28    15    37 1   
    29    16    38 1   
    30    17    18 1   
    31    18    19 1   
    32    18    39 1   
    33    18    40 1   
    34    19    21 1   
    35    19    20 1   
    36    19    41 1   
    37    20    42 1   
    38    22    21 ar  
    39    21    26 ar  
    40    22    23 ar  
    41    22    43 1   
    42    23    24 ar  
    43    23    44 1   
    44    24    25 ar  
    45    24    45 1   
    46    26    25 ar  
    47    25    46 1   
    48    26    47 1   
    49    48     6 1   
@<TRIPOS>SUBSTRUCTURE
     1 4BU         1 TEMP              0 ****  ****    0 ROOT
