@<TRIPOS>MOLECULE
molecule
   63    67     1     0     0
SMALL
bcc


@<TRIPOS>ATOM
      1 CBG          0.0000     0.0000     0.0000 c3         1 4BV      -0.114400
      2 CBH          1.5490     0.0000     0.0000 c3         1 4BV       0.133400
      3 OBI          1.9240     0.0000     1.3860 os         1 4BV      -0.420600
      4 CBJ          0.8680    -0.5560     2.1800 c3         1 4BV       0.136400
      5 CBF         -0.2950    -0.9050     1.2270 c3         1 4BV      -0.108700
      6 CBE         -1.6420    -0.5450     1.8580 c3         1 4BV       0.147400
      7 OBD         -1.9370    -1.4670     2.9080 os         1 4BV      -0.328900
      8 CAZ         -3.1070    -1.2870     3.5770 ca         1 4BV       0.155100
      9 CAY         -3.4560    -2.1460     4.6070 ca         1 4BV      -0.164000
     10 CBA         -3.9490    -0.2390     3.2330 ca         1 4BV      -0.226000
     11 CBB         -5.1380    -0.0560     3.9120 ca         1 4BV      -0.079000
     12 CBC         -5.4910    -0.9130     4.9360 ca         1 4BV      -0.191000
     13 CAX         -4.6510    -1.9590     5.2880 ca         1 4BV       0.136100
     14 OAM         -4.9960    -2.7990     6.2970 os         1 4BV      -0.237200
     15 CAB         -6.0640    -3.6200     6.1090 ca         1 4BV       0.120100
     16 CAA         -6.6830    -3.6760     4.8710 ca         1 4BV      -0.191000
     17 CAF         -7.7720    -4.5120     4.6790 ca         1 4BV       0.013600
     18 NAI         -8.5870    -4.7820     3.5800 n          1 4BV      -0.360000
     19 CAK         -8.4590    -4.1810     2.2490 c3         1 4BV       0.117300
     20 CAH         -9.5100    -5.6900     3.9480 c          1 4BV       0.801500
     21 OAJ        -10.3770    -6.1420     3.2230 o          1 4BV      -0.663500
     22 NAG         -9.3300    -6.0210     5.2400 n          1 4BV      -0.358000
     23 CAL        -10.1370    -6.9790     6.0010 c3         1 4BV       0.117300
     24 CAE         -8.2440    -5.2980     5.7320 ca         1 4BV      -0.010400
     25 CAD         -7.6220    -5.2420     6.9720 ca         1 4BV      -0.161000
     26 CAC         -6.5310    -4.4090     7.1590 ca         1 4BV       0.137600
     27 NAN         -5.8990    -4.3550     8.4090 nu         1 4BV      -0.753500
     28 SAO         -5.7730    -5.7240     9.3330 sy         1 4BV       1.384800
     29 OAP         -4.9720    -5.3790    10.4550 o          1 4BV      -0.627300
     30 OAQ         -7.0870    -6.2520     9.4490 o          1 4BV      -0.627300
     31 CAR         -4.8450    -6.8980     8.4020 cc         1 4BV       0.093200
     32 CAV         -5.3500    -7.8020     7.5420 cd         1 4BV      -0.157600
     33 NAS         -3.5110    -7.0430     8.4220 nc         1 4BV      -0.610000
     34 CAT         -3.1710    -8.0070     7.6110 cd         1 4BV       0.395400
     35 NAU         -4.2880    -8.5040     7.0360 na         1 4BV      -0.179900
     36 CAW         -4.3520    -9.5940     6.0610 c3         1 4BV       0.025600
     37 H1          -0.3880    -0.4420    -0.9100 hc         1 4BV       0.058200
     38 H2          -0.3880     1.0000     0.1540 hc         1 4BV       0.058200
     39 H3           1.9240    -0.8910    -0.4890 h1         1 4BV       0.050200
     40 H4           1.9240     0.8910    -0.4890 h1         1 4BV       0.050200
     41 H5           0.5380     0.1710     2.9110 h1         1 4BV       0.053200
     42 H6           1.2170    -1.4540     2.6760 h1         1 4BV       0.053200
     43 H7          -0.2600    -1.9520     0.9470 hc         1 4BV       0.077700
     44 H8          -2.4180    -0.5950     1.1050 h1         1 4BV       0.041200
     45 H9          -1.5940     0.4590     2.2620 h1         1 4BV       0.041200
     46 H10         -2.7980    -2.9620     4.8800 ha         1 4BV       0.161000
     47 H11         -3.6750     0.4350     2.4300 ha         1 4BV       0.138000
     48 H12         -5.7950     0.7610     3.6400 ha         1 4BV       0.137000
     49 H13         -6.4240    -0.7660     5.4670 ha         1 4BV       0.147000
     50 H14         -6.2770    -3.1160     4.0370 ha         1 4BV       0.155000
     51 H15         -7.4540    -4.3370     1.8770 h1         1 4BV       0.053033
     52 H16         -8.6600    -3.1180     2.3130 h1         1 4BV       0.053033
     53 H17         -9.1700    -4.6430     1.5750 h1         1 4BV       0.053033
     54 H18        -10.3810    -6.5580     6.9690 h1         1 4BV       0.054367
     55 H19        -11.0510    -7.1920     5.4600 h1         1 4BV       0.054367
     56 H20         -9.5760    -7.8960     6.1370 h1         1 4BV       0.054367
     57 H21         -7.9840    -5.8550     7.7890 ha         1 4BV       0.194000
     58 H22         -5.5600    -3.4820     8.7610 hn         1 4BV       0.477800
     59 H23         -6.3950    -7.9440     7.2930 h4         1 4BV       0.189000
     60 H24         -2.1600    -8.3470     7.4230 h5         1 4BV       0.072100
     61 H25         -3.5360   -10.2850     6.2370 h1         1 4BV       0.059033
     62 H26         -5.2960   -10.1160     6.1640 h1         1 4BV       0.059033
     63 H27         -4.2710    -9.1880     5.0590 h1         1 4BV       0.059033
@<TRIPOS>BOND
     1    19    18 1   
     2    21    20 2   
     3     3     2 1   
     4     3     4 1   
     5    20    18 1   
     6    20    22 1   
     7    18    17 1   
     8     2     1 1   
     9     4     5 1   
    10    22    23 1   
    11    22    24 1   
    12    17    16 ar  
    13    17    24 ar  
    14     1     5 1   
    15     5     6 1   
    16    16    15 ar  
    17    24    25 ar  
    18     6     7 1   
    19     7     8 1   
    20     8     9 ar  
    21     8    10 ar  
    22    15    14 1   
    23    15    26 ar  
    24     9    13 ar  
    25    25    26 ar  
    26    10    11 ar  
    27    13    14 1   
    28    13    12 ar  
    29    26    27 1   
    30    11    12 ar  
    31    36    35 1   
    32    35    32 1   
    33    35    34 1   
    34    32    31 2   
    35    27    28 1   
    36    34    33 2   
    37    31    33 1   
    38    31    28 1   
    39    28    30 2   
    40    28    29 2   
    41     1    37 1   
    42     1    38 1   
    43     2    39 1   
    44     2    40 1   
    45     4    41 1   
    46     4    42 1   
    47     5    43 1   
    48     6    44 1   
    49     6    45 1   
    50     9    46 1   
    51    10    47 1   
    52    11    48 1   
    53    12    49 1   
    54    16    50 1   
    55    19    51 1   
    56    19    52 1   
    57    19    53 1   
    58    23    54 1   
    59    23    55 1   
    60    23    56 1   
    61    25    57 1   
    62    27    58 1   
    63    32    59 1   
    64    34    60 1   
    65    36    61 1   
    66    36    62 1   
    67    36    63 1   
@<TRIPOS>SUBSTRUCTURE
     1 4BV         1 TEMP              0 ****  ****    0 ROOT
