@<TRIPOS>MOLECULE
4BV
   63    67     1     0     0
SMALL
bcc


@<TRIPOS>ATOM
      1 CBG          0.0000     0.0000     0.0000 c3         1 4BV      -0.055400
      2 CBH          1.5490     0.0000     0.0000 c3         1 4BV       0.217400
      3 OBI          1.9240     0.0000     1.3860 os         1 4BV      -0.413600
      4 CBJ          0.8680    -0.5560     2.1800 c3         1 4BV       0.215400
      5 CBF         -0.2950    -0.9050     1.2270 c3         1 4BV      -0.094700
      6 CBE         -1.6420    -0.5450     1.8580 c3         1 4BV       0.211400
      7 OBD         -1.9370    -1.4670     2.9080 os         1 4BV      -0.305900
      8 CAZ         -3.1070    -1.2870     3.5770 ca         1 4BV       0.169100
      9 CAY         -3.4560    -2.1460     4.6070 ca         1 4BV      -0.157000
     10 CBA         -3.9490    -0.2390     3.2330 ca         1 4BV      -0.221000
     11 CBB         -5.1380    -0.0560     3.9120 ca         1 4BV      -0.038000
     12 CBC         -5.4910    -0.9130     4.9360 ca         1 4BV      -0.179000
     13 CAX         -4.6510    -1.9590     5.2880 ca         1 4BV       0.147100
     14 OAM         -4.9960    -2.7990     6.2970 os         1 4BV      -0.214200
     15 CAB         -6.0640    -3.6200     6.1090 ca         1 4BV       0.115100
     16 CAA         -6.6830    -3.6760     4.8710 ca         1 4BV      -0.168000
     17 CAF         -7.7720    -4.5120     4.6790 ca         1 4BV      -0.135400
     18 NAI         -8.5870    -4.7820     3.5800 n          1 4BV       0.044000
     19 CAK         -8.4590    -4.1810     2.2490 c3         1 4BV       0.086300
     20 CAH         -9.5100    -5.6900     3.9480 c          1 4BV       0.580500
     21 OAJ        -10.3770    -6.1420     3.2230 o          1 4BV      -0.724500
     22 NAG         -9.3300    -6.0210     5.2400 n          1 4BV       0.047000
     23 CAL        -10.1370    -6.9790     6.0010 c3         1 4BV       0.087300
     24 CAE         -8.2440    -5.2980     5.7320 ca         1 4BV      -0.155400
     25 CAD         -7.6220    -5.2420     6.9720 ca         1 4BV      -0.142000
     26 CAC         -6.5310    -4.4090     7.1590 ca         1 4BV       0.049600
     27 NAN         -5.8990    -4.3550     8.4090 nu         1 4BV      -0.375500
     28 SAO         -5.7730    -5.7240     9.3330 sy         1 4BV       0.992800
     29 OAP         -4.9720    -5.3790    10.4550 o          1 4BV      -0.580800
     30 OAQ         -7.0870    -6.2520     9.4490 o          1 4BV      -0.580800
     31 CAR         -4.8450    -6.8980     8.4020 cc         1 4BV       0.228200
     32 CAV         -5.3500    -7.8020     7.5420 cd         1 4BV      -0.317600
     33 NAS         -3.5110    -7.0430     8.4220 nc         1 4BV      -0.521000
     34 CAT         -3.1710    -8.0070     7.6110 cd         1 4BV       0.212400
     35 NAU         -4.2880    -8.5040     7.0360 na         1 4BV       0.288100
     36 CAW         -4.3520    -9.5940     6.0610 c3         1 4BV      -0.009400
     37 H1          -0.3880    -0.4420    -0.9100 hc         1 4BV       0.026200
     38 H2          -0.3880     1.0000     0.1540 hc         1 4BV       0.026200
     39 H3           1.9240    -0.8910    -0.4890 h1         1 4BV       0.007700
     40 H4           1.9240     0.8910    -0.4890 h1         1 4BV       0.007700
     41 H5           0.5380     0.1710     2.9110 h1         1 4BV       0.012200
     42 H6           1.2170    -1.4540     2.6760 h1         1 4BV       0.012200
     43 H7          -0.2600    -1.9520     0.9470 hc         1 4BV       0.047700
     44 H8          -2.4180    -0.5950     1.1050 h1         1 4BV       0.006700
     45 H9          -1.5940     0.4590     2.2620 h1         1 4BV       0.006700
     46 H10         -2.7980    -2.9620     4.8800 ha         1 4BV       0.131000
     47 H11         -3.6750     0.4350     2.4300 ha         1 4BV       0.123000
     48 H12         -5.7950     0.7610     3.6400 ha         1 4BV       0.104000
     49 H13         -6.4240    -0.7660     5.4670 ha         1 4BV       0.123000
     50 H14         -6.2770    -3.1160     4.0370 ha         1 4BV       0.132000
     51 H15         -7.4540    -4.3370     1.8770 h1         1 4BV       0.018700
     52 H16         -8.6600    -3.1180     2.3130 h1         1 4BV       0.018700
     53 H17         -9.1700    -4.6430     1.5750 h1         1 4BV       0.018700
     54 H18        -10.3810    -6.5580     6.9690 h1         1 4BV       0.019700
     55 H19        -11.0510    -7.1920     5.4600 h1         1 4BV       0.019700
     56 H20         -9.5760    -7.8960     6.1370 h1         1 4BV       0.019700
     57 H21         -7.9840    -5.8550     7.7890 ha         1 4BV       0.182000
     58 H22         -5.5600    -3.4820     8.7610 hn         1 4BV       0.355800
     59 H23         -6.3950    -7.9440     7.2930 h4         1 4BV       0.165000
     60 H24         -2.1600    -8.3470     7.4230 h5         1 4BV       0.028100
     61 H25         -3.5360   -10.2850     6.2370 h1         1 4BV       0.026700
     62 H26         -5.2960   -10.1160     6.1640 h1         1 4BV       0.026700
     63 H27         -4.2710    -9.1880     5.0590 h1         1 4BV       0.026700
@<TRIPOS>BOND
     1     1     2 1   
     2     1     5 1   
     3     1    37 1   
     4     1    38 1   
     5     2     3 1   
     6     2    39 1   
     7     2    40 1   
     8     3     4 1   
     9     4     5 1   
    10     4    41 1   
    11     4    42 1   
    12     5     6 1   
    13     5    43 1   
    14     6     7 1   
    15     6    44 1   
    16     6    45 1   
    17     7     8 1   
    18     8     9 ar  
    19     8    10 ar  
    20     9    13 ar  
    21     9    46 1   
    22    10    11 ar  
    23    10    47 1   
    24    11    12 ar  
    25    11    48 1   
    26    12    13 ar  
    27    12    49 1   
    28    13    14 1   
    29    14    15 1   
    30    15    16 ar  
    31    15    26 ar  
    32    16    17 ar  
    33    16    50 1   
    34    17    18 1   
    35    17    24 ar  
    36    18    19 1   
    37    18    20 1   
    38    19    51 1   
    39    19    52 1   
    40    19    53 1   
    41    20    21 2   
    42    20    22 1   
    43    22    23 1   
    44    22    24 1   
    45    23    54 1   
    46    23    55 1   
    47    23    56 1   
    48    24    25 ar  
    49    25    26 ar  
    50    25    57 1   
    51    26    27 1   
    52    27    28 1   
    53    27    58 1   
    54    28    29 2   
    55    28    30 2   
    56    28    31 1   
    57    31    32 2   
    58    31    33 1   
    59    32    35 1   
    60    32    59 1   
    61    33    34 2   
    62    34    35 1   
    63    34    60 1   
    64    35    36 1   
    65    36    61 1   
    66    36    62 1   
    67    36    63 1   
@<TRIPOS>SUBSTRUCTURE
     1 4BV         1 TEMP              0 ****  ****    0 ROOT
