@<TRIPOS>MOLECULE
4BX
   23    24     1     0     0
SMALL
bcc


@<TRIPOS>ATOM
      1 C1         -0.4480   -0.0530    0.4210 ca        1 4BX     -0.145000
      2 C2          0.8050    0.4480    0.0250 ca        1 4BX     -0.170000
      3 C3          1.8350    0.6400    0.9320 ca        1 4BX     -0.090000
      4 C4         -0.7180   -0.3810    1.7400 ca        1 4BX     -0.124000
      5 N5          0.3820   -0.4110    4.0500 na        1 4BX     -0.251300
      6 C6          0.3050   -0.1970    2.6790 ca        1 4BX     -0.083200
      7 C7          1.6110    0.3230    2.2790 ca        1 4BX      0.065400
      8 N8          2.4410    0.4060    3.4070 nc        1 4BX     -0.626100
      9 C9          1.6810   -0.0400    4.4440 cd        1 4BX      0.438800
     10 C10         2.1190   -0.1190    5.8730 c3        1 4BX     -0.080700
     11 C11         1.5570   -1.3160    6.6100 c3        1 4BX     -0.209400
     12 C12         0.1490   -1.0500    7.1690 c         1 4BX      0.906600
     13 O13        -0.8530   -1.3150    6.4310 o         1 4BX     -0.841300
     14 O14         0.0450   -0.5970    8.3400 o         1 4BX     -0.841300
     15 H1         -1.2310   -0.1870   -0.3390 ha        1 4BX      0.112000
     16 H2          0.9660    0.6920   -1.0350 ha        1 4BX      0.110000
     17 H3          2.8100    1.0320    0.6120 ha        1 4BX      0.128000
     18 H4         -1.6980   -0.7710    2.0460 ha        1 4BX      0.133000
     19 H10         1.7890    0.8240    6.3910 hc        1 4BX      0.059700
     20 H10A        3.2410   -0.1480    5.8990 hc        1 4BX      0.059700
     21 H11         1.5260   -2.2130    5.9430 hc        1 4BX      0.037200
     22 H11A        2.2310   -1.5480    7.4740 hc        1 4BX      0.037200
     23 HN5        -0.3210   -0.7870    4.6690 hn        1 4BX      0.374700
@<TRIPOS>BOND
     1    1    2 ar  
     2    1    4 ar  
     3    1   15 1   
     4    2    3 ar  
     5    2   16 1   
     6    3    7 ar  
     7    3   17 1   
     8    4    6 ar  
     9    4   18 1   
    10    5    6 1   
    11    5    9 1   
    12    5   23 1   
    13    6    7 ar  
    14    7    8 1   
    15    8    9 2   
    16    9   10 1   
    17   10   11 1   
    18   10   19 1   
    19   10   20 1   
    20   11   12 1   
    21   11   21 1   
    22   11   22 1   
    23   12   13 1   
    24   12   14 1   
@<TRIPOS>SUBSTRUCTURE
     1 4BX         1 TEMP              0 ****  ****    0 ROOT
