@<TRIPOS>MOLECULE
molecule
   23    24     1     0     0
SMALL
bcc


@<TRIPOS>ATOM
      1 C1           0.0000     0.0000     0.0000 ca         1 4BX      -0.139000
      2 C2           1.3880     0.0000     0.0000 ca         1 4BX      -0.157000
      3 C3           2.0850     0.0000     1.1750 ca         1 4BX      -0.079000
      4 C4          -0.6990     0.0050     1.1890 ca         1 4BX      -0.127000
      5 N5          -0.3870     0.0180     3.7200 na         1 4BX      -0.271300
      6 C6          -0.0070     0.0120     2.3930 ca         1 4BX      -0.111200
      7 C7           1.3990     0.0000     2.3920 ca         1 4BX       0.105400
      8 N8           1.7950     0.0100     3.6900 nc         1 4BX      -0.617100
      9 C9           0.7500     0.0260     4.4660 cd         1 4BX       0.457800
     10 C10          0.7940     0.0350     5.9720 c3         1 4BX      -0.075700
     11 C11          1.6390    -1.1420     6.4660 c3         1 4BX      -0.178400
     12 C12          1.6830    -1.1320     7.9720 c          1 4BX       0.891600
     13 O13          1.0980    -0.2730     8.5880 o          1 4BX      -0.852800
     14 O14          2.3720    -2.0780     8.6290 o          1 4BX      -0.852800
     15 H1          -0.5380    -0.0000    -0.9400 ha         1 4BX       0.117000
     16 H2           1.9240    -0.0040    -0.9410 ha         1 4BX       0.118000
     17 H3           3.1680     0.0000     1.1620 ha         1 4BX       0.135000
     18 H4          -1.7820     0.0050     1.1840 ha         1 4BX       0.115000
     19 H10          1.2330     0.9640     6.3150 hc         1 4BX       0.066200
     20 H10A        -0.2120    -0.0550     6.3630 hc         1 4BX       0.066200
     21 H11          2.6460    -1.0520     6.0750 hc         1 4BX       0.045200
     22 H11A         1.2000    -2.0710     6.1240 hc         1 4BX       0.045200
     23 HN5         -1.3250     0.0270     4.0680 hn         1 4BX       0.298700
@<TRIPOS>BOND
     1     4     1 ar  
     2     1     2 ar  
     3     1    15 1   
     4     2     3 ar  
     5     2    16 1   
     6     7     3 ar  
     7     3    17 1   
     8     4     6 ar  
     9     4    18 1   
    10     5     9 1   
    11     5     6 1   
    12     6     7 ar  
    13     8     7 1   
    14     9     8 2   
    15    10     9 1   
    16    11    10 1   
    17    10    19 1   
    18    10    20 1   
    19    12    11 1   
    20    11    21 1   
    21    11    22 1   
    22    13    12 1   
    23    12    14 1   
    24     5    23 1   
@<TRIPOS>SUBSTRUCTURE
     1 4BX         1 TEMP              0 ****  ****    0 ROOT
