@<TRIPOS>MOLECULE
molecule
   21    22     1     0     0
SMALL
bcc


@<TRIPOS>ATOM
      1 C1           0.0000     0.0000     0.0000 cc         1 4BY      -0.049300
      2 N2           1.3830     0.0000     0.0000 na         1 4BY      -0.152400
      3 C3          -0.4450    -0.0010     1.2840 cd         1 4BY      -0.214200
      4 C4           0.6880    -0.0010     2.1330 ca         1 4BY      -0.095800
      5 C5           1.8250     0.0000     1.3010 ca         1 4BY      -0.070200
      6 C6          -0.8510     0.0050    -1.1970 c          1 4BY       0.894800
      7 C7           0.8470    -0.0000     3.5250 ca         1 4BY      -0.090000
      8 O8          -2.0620     0.0090    -1.0810 o          1 4BY      -0.827300
      9 C9           3.0930     0.0010     1.8760 ca         1 4BY      -0.139000
     10 O10         -0.2910     0.0040    -2.4240 o          1 4BY      -0.827300
     11 C11          2.1000     0.0000     4.0650 ca         1 4BY      -0.135300
     12 C12          3.2240     0.0010     3.2460 ca         1 4BY      -0.140000
     13 C13          2.2690     0.0000     5.5620 c3         1 4BY      -0.033800
     14 H3          -1.4810    -0.0020     1.6010 ha         1 4BY       0.158000
     15 H7          -0.0220    -0.0010     4.1720 ha         1 4BY       0.117000
     16 H9           3.9750     0.0010     1.2460 ha         1 4BY       0.110000
     17 H12          4.2110     0.0020     3.6910 ha         1 4BY       0.108000
     18 H13          1.5980     0.7300     6.0010 hc         1 4BY       0.027033
     19 H13A         2.0370    -0.9830     5.9520 hc         1 4BY       0.027033
     20 H13B         3.2920     0.2550     5.8110 hc         1 4BY       0.027033
     21 HN2          1.9650     0.0010    -0.8140 hn         1 4BY       0.308700
@<TRIPOS>BOND
     1     2     1 1
     2     6     1 1
     3     1     3 2
     4     2     5 1
     5     4     3 1
     6     3    14 1
     7     5     4 ar
     8     4     7 ar
     9     9     5 ar
    10     8     6 1
    11     6    10 1
    12    11     7 ar
    13     7    15 1
    14     9    12 ar
    15     9    16 1
    16    12    11 ar
    17    11    13 1
    18    12    17 1
    19    13    18 1
    20    13    19 1
    21    13    20 1
    22     2    21 1
@<TRIPOS>SUBSTRUCTURE
     1 4BY         1 TEMP              0 ****  ****    0 ROOT
