@<TRIPOS>MOLECULE
4BY
   21    22     1     0     0
SMALL
bcc


@<TRIPOS>ATOM
      1 C1         -0.0460   -0.0120   -0.0050 cc        1 4BY     -0.072300
      2 N2          1.3550    0.0340    0.0010 na        1 4BY     -0.169400
      3 C3         -0.5130   -0.0440    1.3130 cd        1 4BY     -0.219200
      4 C4          0.6350   -0.0180    2.1830 ca        1 4BY     -0.086800
      5 C5          1.8040    0.0320    1.3160 ca        1 4BY     -0.067200
      6 C6         -0.8250   -0.0200   -1.3140 c         1 4BY      0.926800
      7 C7          0.8140   -0.0290    3.5640 ca        1 4BY     -0.094000
      8 O8         -2.0800   -0.0620   -1.2410 o         1 4BY     -0.817300
      9 C9          3.0950    0.0670    1.8600 ca        1 4BY     -0.147000
     10 O10        -0.1540    0.0150   -2.3840 o         1 4BY     -0.817300
     11 C11         2.1020    0.0060    4.0920 ca        1 4BY     -0.136300
     12 C12         3.2240    0.0530    3.2400 ca        1 4BY     -0.143000
     13 C13         2.3170   -0.0050    5.5580 c3        1 4BY     -0.031800
     14 H3         -1.5560   -0.0820    1.6100 ha        1 4BY      0.157000
     15 H7         -0.0620   -0.0670    4.2280 ha        1 4BY      0.117000
     16 H9          3.9790    0.1030    1.2110 ha        1 4BY      0.115000
     17 H12         4.2270    0.0800    3.6900 ha        1 4BY      0.105000
     18 H13         2.9470   -0.8800    5.8550 hc        1 4BY      0.024700
     19 H13A        2.8450    0.9270    5.8820 hc        1 4BY      0.024700
     20 H13B        1.3470   -0.0680    6.1110 hc        1 4BY      0.024700
     21 HN2         1.9030    0.0620   -0.8180 hn        1 4BY      0.307700
@<TRIPOS>BOND
     1    1    2 1   
     2    1    3 2   
     3    1    6 1   
     4    2    5 1   
     5    2   21 1   
     6    3    4 1   
     7    3   14 1   
     8    4    5 ar  
     9    4    7 ar  
    10    5    9 ar  
    11    6    8 1   
    12    6   10 1   
    13    7   11 ar  
    14    7   15 1   
    15    9   12 ar  
    16    9   16 1   
    17   11   12 ar  
    18   11   13 1   
    19   12   17 1   
    20   13   18 1   
    21   13   19 1   
    22   13   20 1   
@<TRIPOS>SUBSTRUCTURE
     1 4BY         1 TEMP              0 ****  ****    0 ROOT
