@<TRIPOS>MOLECULE
4BZ
   22    22     1     0     0
SMALL
bcc


@<TRIPOS>ATOM
      1 OA           0.0000     0.0000     0.0000 oh         1 4BZ      -0.584800
      2 CB           1.4220     0.0000     0.0000 c3         1 4BZ       0.270700
      3 CG           1.9180     0.0000     1.4060 ca         1 4BZ      -0.037300
      4 CD1          2.1490     1.2090     2.0640 ca         1 4BZ      -0.045000
      5 CD2          2.1500    -1.2070     2.0650 ca         1 4BZ      -0.045000
      6 CE1          2.6130     1.2090     3.3790 ca         1 4BZ      -0.076500
      7 CE2          2.6140    -1.2070     3.3800 ca         1 4BZ      -0.076500
      8 CZ           2.8450     0.0020     4.0370 ca         1 4BZ      -0.222900
      9 CH           3.3290     0.0020     5.4090 ce         1 4BZ       0.219800
     10 NQ1          3.5930     1.1490     6.1500 nz         1 4BZ       0.193400
     11 NQ2          3.5350    -1.1610     5.9900 n2         1 4BZ      -0.515100
     12 HA          -0.3140    -0.0000    -0.8890 ho         1 4BZ       0.411000
     13 HB2          1.7830    -0.8850    -0.5100 h1         1 4BZ       0.001700
     14 HB3          1.7830     0.8850    -0.5100 h1         1 4BZ       0.001700
     15 HD1          1.9690     2.1470     1.5530 ha         1 4BZ       0.130500
     16 HD2          1.9710    -2.1460     1.5540 ha         1 4BZ       0.130500
     17 HE1          2.7930     2.1470     3.8900 ha         1 4BZ       0.099000
     18 HE2          2.7940    -2.1450     3.8920 ha         1 4BZ       0.099000
     19 HQ11         4.2970     1.6900     5.6890 hn         1 4BZ       0.220800
     20 HQ12         3.9150     0.8900     7.0620 hn         1 4BZ       0.220800
     21 HQ21         3.3580    -2.0100     5.4900 hn         1 4BZ       0.384400
     22 HQ13         2.7560     1.6920     6.2340 hn         1 4BZ       0.220800
@<TRIPOS>BOND
     1     1     2 1   
     2     1    12 1   
     3     2     3 1   
     4     2    13 1   
     5     2    14 1   
     6     3     4 ar  
     7     3     5 ar  
     8     4     6 ar  
     9     4    15 1   
    10     5     7 ar  
    11     5    16 1   
    12     6     8 ar  
    13     6    17 1   
    14     7     8 ar  
    15     7    18 1   
    16     8     9 1   
    17     9    10 1   
    18     9    11 2   
    19    10    19 1   
    20    10    20 1   
    21    10    22 1   
    22    11    21 1   
@<TRIPOS>SUBSTRUCTURE
     1 4BZ         1 TEMP              0 ****  ****    0 ROOT
