@<TRIPOS>MOLECULE
molecule
   43    45     1     0     0
SMALL
bcc


@<TRIPOS>ATOM
      1 C1           0.0000     0.0000     0.0000 ca         1 4C0      -0.156000
      2 C2           1.3880     0.0000     0.0000 ca         1 4C0      -0.135000
      3 C3           2.0860     0.0000     1.1890 ca         1 4C0      -0.126000
      4 C4          -0.6970     0.0000     1.1750 ca         1 4C0      -0.077000
      5 C5          -0.0110    -0.0060     2.3910 ca         1 4C0       0.103400
      6 C6           1.3950    -0.0010     2.3930 ca         1 4C0      -0.106200
      7 N7           1.7750    -0.0010     3.7200 na         1 4C0      -0.266300
      8 C8           0.6380    -0.0010     4.4660 cc         1 4C0       0.451800
      9 N9          -0.4070    -0.0070     3.6900 nd         1 4C0      -0.616100
     10 C10          0.5950    -0.0020     5.9730 c3         1 4C0      -0.087700
     11 C11         -0.2470     1.1790     6.4590 c3         1 4C0       0.016700
     12 N12         -1.6370     0.9990     6.0320 ns         1 4C0      -0.535900
     13 C13         -2.4400     2.0710     5.8830 c          1 4C0       0.670100
     14 O14         -2.0130     3.1840     6.1020 o          1 4C0      -0.633100
     15 C15         -3.8690     1.8850     5.4410 c3         1 4C0      -0.153400
     16 C16         -4.5560     3.2490     5.3510 c3         1 4C0      -0.024100
     17 C17         -5.9860     3.0640     4.9110 ca         1 4C0      -0.057300
     18 C18         -6.9810     2.8830     5.8530 ca         1 4C0      -0.125000
     19 C19         -8.2920     2.7130     5.4490 ca         1 4C0      -0.139500
     20 C20         -8.6080     2.7230     4.1030 ca         1 4C0      -0.147000
     21 C21         -7.6110     2.9040     3.1610 ca         1 4C0      -0.139500
     22 C22         -6.3020     3.0800     3.5650 ca         1 4C0      -0.125000
     23 C23         -0.1900     1.2510     7.9640 c          1 4C0       0.883600
     24 O24         -1.2060     1.1600     8.6120 o          1 4C0      -0.835300
     25 O25          0.9890     1.4150     8.5840 o          1 4C0      -0.835300
     26 H1          -0.5360    -0.0000    -0.9410 ha         1 4C0       0.120000
     27 H2           1.9260    -0.0000    -0.9400 ha         1 4C0       0.119000
     28 H3           3.1690    -0.0000     1.1840 ha         1 4C0       0.117000
     29 H4          -1.7800     0.0000     1.1630 ha         1 4C0       0.135000
     30 H10          0.1530    -0.9280     6.3210 hc         1 4C0       0.074700
     31 H10A         1.6010     0.0860     6.3630 hc         1 4C0       0.074700
     32 H11          0.1440     2.0980     6.0390 h1         1 4C0       0.078700
     33 HN12        -2.0000     0.0780     5.8890 hn         1 4C0       0.307500
     34 H15         -4.3910     1.2650     6.1600 hc         1 4C0       0.055700
     35 H15A        -3.8880     1.4070     4.4700 hc         1 4C0       0.055700
     36 H16         -4.0350     3.8690     4.6320 hc         1 4C0       0.065200
     37 H16A        -4.5370     3.7280     6.3220 hc         1 4C0       0.065200
     38 H18         -6.7380     2.9050     6.9080 ha         1 4C0       0.135000
     39 H19         -9.0720     2.5680     6.1870 ha         1 4C0       0.119000
     40 H20         -9.6360     2.5990     3.7870 ha         1 4C0       0.115000
     41 H21         -7.8570     2.9040     2.1060 ha         1 4C0       0.119000
     42 H22         -5.6980     3.3260     2.7000 ha         1 4C0       0.135000
     43 HN7          2.7130     0.0040     4.0690 hn         1 4C0       0.302700
@<TRIPOS>BOND
     1     2     1 ar
     2     1     4 ar
     3     1    26 1
     4     3     2 ar
     5     2    27 1
     6     3     6 ar
     7     3    28 1
     8     5     4 ar
     9     4    29 1
    10     6     5 ar
    11     5     9 1
    12     7     6 1
    13     7     8 1
    14    10     8 1
    15     8     9 2
    16    11    10 1
    17    10    30 1
    18    10    31 1
    19    12    11 1
    20    11    23 1
    21    11    32 1
    22    13    12 1
    23    12    33 1
    24    15    13 1
    25    13    14 2
    26    16    15 1
    27    15    34 1
    28    15    35 1
    29    17    16 1
    30    16    36 1
    31    16    37 1
    32    18    17 ar
    33    22    17 ar
    34    19    18 ar
    35    18    38 1
    36    20    19 ar
    37    19    39 1
    38    20    21 ar
    39    20    40 1
    40    21    22 ar
    41    21    41 1
    42    22    42 1
    43    24    23 1
    44    23    25 1
    45     7    43 1
@<TRIPOS>SUBSTRUCTURE
     1 4C0         1 TEMP              0 ****  ****    0 ROOT
