@<TRIPOS>MOLECULE
molecule
   87    90     1     0     0
SMALL
bcc


@<TRIPOS>ATOM
      1 CAY          0.0000     0.0000     0.0000 c3         1 4C1       0.122700
      2 OAX          1.4300     0.0000     0.0000 os         1 4C1      -0.311900
      3 CAS          2.0460     0.0000     1.2120 ca         1 4C1       0.097100
      4 CAR          1.2930    -0.0000     2.3750 ca         1 4C1      -0.092000
      5 CAT          3.4370    -0.0060     1.2880 ca         1 4C1       0.170100
      6 OAW          4.1810    -0.0100     0.1490 os         1 4C1      -0.306900
      7 CAZ          5.6010    -0.0160     0.3030 c3         1 4C1       0.124700
      8 CAU          4.0600    -0.0060     2.5240 ca         1 4C1      -0.219000
      9 CAV          3.3020    -0.0010     3.6810 ca         1 4C1      -0.018000
     10 CAQ          1.9220    -0.0000     3.6070 ca         1 4C1      -0.313500
     11 SAN          0.9610     0.0070     5.0840 sy         1 4C1       1.431200
     12 OAO         -0.3050    -0.5400     4.7420 o          1 4C1      -0.638800
     13 OAP          1.7910    -0.5340     6.1040 o          1 4C1      -0.638800
     14 NAM          0.6940     1.5900     5.4870 nu         1 4C1      -0.757500
     15 CAB         -0.0070     2.4280     4.6100 ca         1 4C1       0.133600
     16 CAA         -1.0540     1.9210     3.8570 ca         1 4C1      -0.161000
     17 CAF         -1.7460     2.7520     2.9900 ca         1 4C1      -0.009400
     18 NAI         -2.8170     2.5460     2.1200 n          1 4C1      -0.360000
     19 CAK         -3.5190     1.2760     1.9110 c3         1 4C1       0.120300
     20 CAH         -3.0970     3.7110     1.5070 c          1 4C1       0.801500
     21 OAJ         -3.9790     3.8750     0.6840 o          1 4C1      -0.659500
     22 NAG         -2.2540     4.6660     1.9410 n          1 4C1      -0.358000
     23 CAL         -2.2460     6.0650     1.5060 c3         1 4C1       0.116300
     24 CAE         -1.3890     4.0970     2.8760 ca         1 4C1       0.017600
     25 CAD         -0.3410     4.6020     3.6310 ca         1 4C1      -0.189000
     26 CAC          0.3460     3.7720     4.5000 ca         1 4C1       0.121100
     27 OBA          1.3740     4.2670     5.2420 os         1 4C1      -0.248200
     28 CBB          1.7480     5.5570     5.0330 ca         1 4C1       0.172100
     29 CBC          0.9880     6.5930     5.5560 ca         1 4C1      -0.284000
     30 CBG          2.8930     5.8380     4.3010 ca         1 4C1      -0.265000
     31 CBF          3.2740     7.1540     4.0880 ca         1 4C1       0.190100
     32 OBH          4.3950     7.4300     3.3710 os         1 4C1      -0.323900
     33 CBJ          5.0720     6.3210     2.7740 c3         1 4C1       0.135400
     34 CBK          6.3590     6.8090     2.1070 c3         1 4C1      -0.084400
     35 CBL          7.0210     5.6470     1.3640 c3         1 4C1      -0.091100
     36 CBE          2.5110     8.1900     4.6070 ca         1 4C1      -0.197000
     37 CBD          1.3700     7.9090     5.3430 ca         1 4C1       0.189100
     38 OBI          0.6220     8.9230     5.8510 os         1 4C1      -0.324900
     39 CBM         -0.5400     8.5620     6.6000 c3         1 4C1       0.137400
     40 CBN         -1.2470     9.8280     7.0860 c3         1 4C1      -0.083400
     41 CBO         -2.4920     9.4400     7.8880 c3         1 4C1      -0.080400
     42 CBP         -3.1990    10.7060     8.3760 c3         1 4C1       0.164800
     43 NBQ         -4.3940    10.3340     9.1450 n3         1 4C1      -0.733600
     44 CBR         -4.0260     9.6400    10.3860 c3         1 4C1       0.151100
     45 CBS         -5.2270    11.5110     9.4270 c3         1 4C1       0.151100
     46 H1          -0.3610     0.9220     0.4400 h1         1 4C1       0.044700
     47 H2          -0.3610    -0.0800    -1.0180 h1         1 4C1       0.044700
     48 H3          -0.3610    -0.8420     0.5780 h1         1 4C1       0.044700
     49 H4           0.2110    -0.0000     2.3200 ha         1 4C1       0.158000
     50 H5           6.0700     0.0010    -0.6740 h1         1 4C1       0.044033
     51 H6           5.9030    -0.9110     0.8330 h1         1 4C1       0.044033
     52 H7           5.9070     0.8580     0.8650 h1         1 4C1       0.044033
     53 H8           5.1420    -0.0080     2.5860 ha         1 4C1       0.146000
     54 H9           3.7910    -0.0010     4.6480 ha         1 4C1       0.153000
     55 H10          0.9910     1.9350     6.3790 hn         1 4C1       0.474800
     56 H11         -1.3910     0.9040     4.0170 ha         1 4C1       0.194000
     57 H12         -4.5730     1.4070     2.1230 h1         1 4C1       0.053700
     58 H13         -3.1080     0.5230     2.5730 h1         1 4C1       0.053700
     59 H14         -3.3940     0.9600     0.8820 h1         1 4C1       0.053700
     60 H15         -2.9490     6.1940     0.6910 h1         1 4C1       0.054033
     61 H16         -2.5320     6.7020     2.3340 h1         1 4C1       0.054033
     62 H17         -1.2520     6.3330     1.1700 h1         1 4C1       0.054033
     63 H18         -0.0660     5.6470     3.5470 ha         1 4C1       0.158000
     64 H19          0.0970     6.3740     6.1310 ha         1 4C1       0.151000
     65 H20          3.5160     5.0290     3.9390 ha         1 4C1       0.152000
     66 H21          5.3150     5.5930     3.5380 h1         1 4C1       0.039200
     67 H22          4.4310     5.8640     2.0310 h1         1 4C1       0.039200
     68 H23          7.0370     7.1860     2.8630 hc         1 4C1       0.056200
     69 H24          6.1250     7.6000     1.4060 hc         1 4C1       0.056200
     70 H25          7.2430     4.8500     2.0630 hc         1 4C1       0.038033
     71 H26          7.9390     5.9890     0.9030 hc         1 4C1       0.038033
     72 H27          6.3480     5.2790     0.5980 hc         1 4C1       0.038033
     73 H28          2.8090     9.2180     4.4410 ha         1 4C1       0.161000
     74 H29         -1.2120     7.9910     5.9700 h1         1 4C1       0.039200
     75 H30         -0.2470     7.9610     7.4530 h1         1 4C1       0.039200
     76 H31         -1.5400    10.4280     6.2330 hc         1 4C1       0.056200
     77 H32         -0.5750    10.3980     7.7160 hc         1 4C1       0.056200
     78 H33         -3.1640     8.8700     7.2580 hc         1 4C1       0.051200
     79 H34         -2.1990     8.8390     8.7410 hc         1 4C1       0.051200
     80 H35         -2.5270    11.2750     9.0060 h1         1 4C1       0.035200
     81 H36         -3.4920    11.3070     7.5230 h1         1 4C1       0.035200
     82 H38         -3.8720     8.5880    10.1800 h1         1 4C1       0.032700
     83 H39         -4.8210     9.7540    11.1120 h1         1 4C1       0.032700
     84 H40         -3.1120    10.0680    10.7810 h1         1 4C1       0.032700
     85 H41         -4.6760    12.2020    10.0530 h1         1 4C1       0.032700
     86 H42         -5.4900    11.9980     8.4960 h1         1 4C1       0.032700
     87 H43         -6.1290    11.2000     9.9390 h1         1 4C1       0.032700
@<TRIPOS>BOND
     1    23    22 1   
     2    21    20 2   
     3    35    34 1   
     4    22    20 1   
     5    22    24 1   
     6    20    18 1   
     7    24    25 ar  
     8    24    17 ar  
     9    18    19 1   
    10    18    17 1   
    11    34    33 1   
    12    25    26 ar  
    13    33    32 1   
    14    17    16 ar  
    15    32    31 1   
    16    44    43 1   
    17    31    30 ar  
    18    31    36 ar  
    19    30    28 ar  
    20    36    37 ar  
    21    26    27 1   
    22    26    15 ar  
    23    42    43 1   
    24    42    41 1   
    25    16    15 ar  
    26    28    27 1   
    27    28    29 ar  
    28    37    38 1   
    29    37    29 ar  
    30    43    45 1   
    31    38    39 1   
    32    40    41 1   
    33    40    39 1   
    34    15    14 1   
    35     6     7 1   
    36     6     5 1   
    37     8     5 ar  
    38     8     9 ar  
    39     5     3 ar  
    40     9    10 ar  
    41    14    11 1   
    42     3     2 1   
    43     3     4 ar  
    44     2     1 1   
    45    10     4 ar  
    46    10    11 1   
    47    11    13 2   
    48    11    12 2   
    49     1    46 1   
    50     1    47 1   
    51     1    48 1   
    52     4    49 1   
    53     7    50 1   
    54     7    51 1   
    55     7    52 1   
    56     8    53 1   
    57     9    54 1   
    58    14    55 1   
    59    16    56 1   
    60    19    57 1   
    61    19    58 1   
    62    19    59 1   
    63    23    60 1   
    64    23    61 1   
    65    23    62 1   
    66    25    63 1   
    67    29    64 1   
    68    30    65 1   
    69    33    66 1   
    70    33    67 1   
    71    34    68 1   
    72    34    69 1   
    73    35    70 1   
    74    35    71 1   
    75    35    72 1   
    76    36    73 1   
    77    39    74 1   
    78    39    75 1   
    79    40    76 1   
    80    40    77 1   
    81    41    78 1   
    82    41    79 1   
    83    42    80 1   
    84    42    81 1   
    85    44    82 1   
    86    44    83 1   
    87    44    84 1   
    88    45    85 1   
    89    45    86 1   
    90    45    87 1   
@<TRIPOS>SUBSTRUCTURE
     1 4C1         1 TEMP              0 ****  ****    0 ROOT
