@<TRIPOS>MOLECULE
4C1
   87    90     1     0     0
SMALL
bcc


@<TRIPOS>ATOM
      1 CAY          0.0000     0.0000     0.0000 c3         1 4C1       0.237700
      2 OAX          1.4300     0.0000     0.0000 os         1 4C1      -0.291900
      3 CAS          2.0460     0.0000     1.2120 ca         1 4C1       0.092100
      4 CAR          1.2930    -0.0000     2.3750 ca         1 4C1      -0.078000
      5 CAT          3.4370    -0.0060     1.2880 ca         1 4C1       0.171100
      6 OAW          4.1810    -0.0100     0.1490 os         1 4C1      -0.289900
      7 CAZ          5.6010    -0.0160     0.3030 c3         1 4C1       0.242700
      8 CAU          4.0600    -0.0060     2.5240 ca         1 4C1      -0.215000
      9 CAV          3.3020    -0.0010     3.6810 ca         1 4C1       0.015000
     10 CAQ          1.9220    -0.0000     3.6070 ca         1 4C1      -0.156500
     11 SAN          0.9610     0.0070     5.0840 sy         1 4C1       1.043200
     12 OAO         -0.3050    -0.5400     4.7420 o          1 4C1      -0.590800
     13 OAP          1.7910    -0.5340     6.1040 o          1 4C1      -0.590800
     14 NAM          0.6940     1.5900     5.4870 nu         1 4C1      -0.379500
     15 CAB         -0.0070     2.4280     4.6100 ca         1 4C1       0.045600
     16 CAA         -1.0540     1.9210     3.8570 ca         1 4C1      -0.142000
     17 CAF         -1.7460     2.7520     2.9900 ca         1 4C1      -0.153400
     18 NAI         -2.8170     2.5460     2.1200 n          1 4C1       0.044000
     19 CAK         -3.5190     1.2760     1.9110 c3         1 4C1       0.090300
     20 CAH         -3.0970     3.7110     1.5070 c          1 4C1       0.580500
     21 OAJ         -3.9790     3.8750     0.6840 o          1 4C1      -0.719500
     22 NAG         -2.2540     4.6660     1.9410 n          1 4C1       0.046000
     23 CAL         -2.2460     6.0650     1.5060 c3         1 4C1       0.085300
     24 CAE         -1.3890     4.0970     2.8760 ca         1 4C1      -0.130400
     25 CAD         -0.3410     4.6020     3.6310 ca         1 4C1      -0.168000
     26 CAC          0.3460     3.7720     4.5000 ca         1 4C1       0.119100
     27 OBA          1.3740     4.2670     5.2420 os         1 4C1      -0.226200
     28 CBB          1.7480     5.5570     5.0330 ca         1 4C1       0.191100
     29 CBC          0.9880     6.5930     5.5560 ca         1 4C1      -0.288000
     30 CBG          2.8930     5.8380     4.3010 ca         1 4C1      -0.270000
     31 CBF          3.2740     7.1540     4.0880 ca         1 4C1       0.208100
     32 OBH          4.3950     7.4300     3.3710 os         1 4C1      -0.302900
     33 CBJ          5.0720     6.3210     2.7740 c3         1 4C1       0.200400
     34 CBK          6.3590     6.8090     2.1070 c3         1 4C1      -0.034400
     35 CBL          7.0210     5.6470     1.3640 c3         1 4C1       0.011900
     36 CBE          2.5110     8.1900     4.6070 ca         1 4C1      -0.195000
     37 CBD          1.3700     7.9090     5.3430 ca         1 4C1       0.208100
     38 OBI          0.6220     8.9230     5.8510 os         1 4C1      -0.303900
     39 CBM         -0.5400     8.5620     6.6000 c3         1 4C1       0.202400
     40 CBN         -1.2470     9.8280     7.0860 c3         1 4C1      -0.033400
     41 CBO         -2.4920     9.4400     7.8880 c3         1 4C1      -0.031400
     42 CBP         -3.1990    10.7060     8.3760 c3         1 4C1       0.154800
     43 NBQ         -4.3940    10.3340     9.1450 n3         1 4C1      -0.547600
     44 CBR         -4.0260     9.6400    10.3860 c3         1 4C1       0.183100
     45 CBS         -5.2270    11.5110     9.4270 c3         1 4C1       0.183100
     46 H1          -0.3610     0.9220     0.4400 h1         1 4C1       0.000367
     47 H2          -0.3610    -0.0800    -1.0180 h1         1 4C1       0.000367
     48 H3          -0.3610    -0.8420     0.5780 h1         1 4C1       0.000367
     49 H4           0.2110    -0.0000     2.3200 ha         1 4C1       0.142000
     50 H5           6.0700     0.0010    -0.6740 h1         1 4C1      -0.000633
     51 H6           5.9030    -0.9110     0.8330 h1         1 4C1      -0.000633
     52 H7           5.9070     0.8580     0.8650 h1         1 4C1      -0.000633
     53 H8           5.1420    -0.0080     2.5860 ha         1 4C1       0.128000
     54 H9           3.7910    -0.0010     4.6480 ha         1 4C1       0.123000
     55 H10          0.9910     1.9350     6.3790 hn         1 4C1       0.353800
     56 H11         -1.3910     0.9040     4.0170 ha         1 4C1       0.181000
     57 H12         -4.5730     1.4070     2.1230 h1         1 4C1       0.019367
     58 H13         -3.1080     0.5230     2.5730 h1         1 4C1       0.019367
     59 H14         -3.3940     0.9600     0.8820 h1         1 4C1       0.019367
     60 H15         -2.9490     6.1940     0.6910 h1         1 4C1       0.020033
     61 H16         -2.5320     6.7020     2.3340 h1         1 4C1       0.020033
     62 H17         -1.2520     6.3330     1.1700 h1         1 4C1       0.020033
     63 H18         -0.0660     5.6470     3.5470 ha         1 4C1       0.136000
     64 H19          0.0970     6.3740     6.1310 ha         1 4C1       0.139000
     65 H20          3.5160     5.0290     3.9390 ha         1 4C1       0.137000
     66 H21          5.3150     5.5930     3.5380 h1         1 4C1       0.004200
     67 H22          4.4310     5.8640     2.0310 h1         1 4C1       0.004200
     68 H23          7.0370     7.1860     2.8630 hc         1 4C1       0.023200
     69 H24          6.1250     7.6000     1.4060 hc         1 4C1       0.023200
     70 H25          7.2430     4.8500     2.0630 hc         1 4C1       0.002700
     71 H26          7.9390     5.9890     0.9030 hc         1 4C1       0.002700
     72 H27          6.3480     5.2790     0.5980 hc         1 4C1       0.002700
     73 H28          2.8090     9.2180     4.4410 ha         1 4C1       0.134000
     74 H29         -1.2120     7.9910     5.9700 h1         1 4C1       0.004700
     75 H30         -0.2470     7.9610     7.4530 h1         1 4C1       0.004700
     76 H31         -1.5400    10.4280     6.2330 hc         1 4C1       0.024200
     77 H32         -0.5750    10.3980     7.7160 hc         1 4C1       0.024200
     78 H33         -3.1640     8.8700     7.2580 hc         1 4C1       0.023700
     79 H34         -2.1990     8.8390     8.7410 hc         1 4C1       0.023700
     80 H35         -2.5270    11.2750     9.0060 h1         1 4C1       0.009700
     81 H36         -3.4920    11.3070     7.5230 h1         1 4C1       0.009700
     82 H38         -3.8720     8.5880    10.1800 h1         1 4C1       0.001367
     83 H39         -4.8210     9.7540    11.1120 h1         1 4C1       0.001367
     84 H40         -3.1120    10.0680    10.7810 h1         1 4C1       0.001367
     85 H41         -4.6760    12.2020    10.0530 h1         1 4C1       0.001367
     86 H42         -5.4900    11.9980     8.4960 h1         1 4C1       0.001367
     87 H43         -6.1290    11.2000     9.9390 h1         1 4C1       0.001367
@<TRIPOS>BOND
     1     1     2 1   
     2     1    46 1   
     3     1    47 1   
     4     1    48 1   
     5     2     3 1   
     6     3     4 ar  
     7     3     5 ar  
     8     4    10 ar  
     9     4    49 1   
    10     5     6 1   
    11     5     8 ar  
    12     6     7 1   
    13     7    50 1   
    14     7    51 1   
    15     7    52 1   
    16     8     9 ar  
    17     8    53 1   
    18     9    10 ar  
    19     9    54 1   
    20    10    11 1   
    21    11    12 2   
    22    11    13 2   
    23    11    14 1   
    24    14    15 1   
    25    14    55 1   
    26    15    16 ar  
    27    15    26 ar  
    28    16    17 ar  
    29    16    56 1   
    30    17    18 1   
    31    17    24 ar  
    32    18    19 1   
    33    18    20 1   
    34    19    57 1   
    35    19    58 1   
    36    19    59 1   
    37    20    21 2   
    38    20    22 1   
    39    22    23 1   
    40    22    24 1   
    41    23    60 1   
    42    23    61 1   
    43    23    62 1   
    44    24    25 ar  
    45    25    26 ar  
    46    25    63 1   
    47    26    27 1   
    48    27    28 1   
    49    28    29 ar  
    50    28    30 ar  
    51    29    37 ar  
    52    29    64 1   
    53    30    31 ar  
    54    30    65 1   
    55    31    32 1   
    56    31    36 ar  
    57    32    33 1   
    58    33    34 1   
    59    33    66 1   
    60    33    67 1   
    61    34    35 1   
    62    34    68 1   
    63    34    69 1   
    64    35    70 1   
    65    35    71 1   
    66    35    72 1   
    67    36    37 ar  
    68    36    73 1   
    69    37    38 1   
    70    38    39 1   
    71    39    40 1   
    72    39    74 1   
    73    39    75 1   
    74    40    41 1   
    75    40    76 1   
    76    40    77 1   
    77    41    42 1   
    78    41    78 1   
    79    41    79 1   
    80    42    43 1   
    81    42    80 1   
    82    42    81 1   
    83    43    44 1   
    84    43    45 1   
    85    44    82 1   
    86    44    83 1   
    87    44    84 1   
    88    45    85 1   
    89    45    86 1   
    90    45    87 1   
@<TRIPOS>SUBSTRUCTURE
     1 4C1         1 TEMP              0 ****  ****    0 ROOT
