@<TRIPOS>MOLECULE
4C2
   60    62     1     0     0
SMALL
bcc


@<TRIPOS>ATOM
      1 C1         -0.0800    0.2220   -0.6220 cc        1 4C2     -0.205200
      2 C2         -3.4990    1.9960    0.2240 cc        1 4C2     -0.923100
      3 C3         -3.5820    1.9230    1.6540 cd        1 4C2      0.603000
      4 O4          2.5010    0.9480    1.3220 o         1 4C2     -0.398100
      5 C7          1.3090    0.2530   -0.8010 cd        1 4C2      0.101800
      6 C8          3.6000    0.4000   -1.6170 c3        1 4C2      0.208800
      7 C9          4.5450   -0.7630   -1.9350 c3        1 4C2     -0.125400
      8 C10         4.2450   -1.3000   -3.3380 c3        1 4C2      0.119500
      9 C11         6.5220   -1.9510   -4.1680 c3        1 4C2      0.174100
     10 C12         7.4020   -3.1070   -4.5010 ca        1 4C2     -0.178300
     11 C13         8.1900   -3.6930   -3.5030 ca        1 4C2     -0.104000
     12 C14         9.0450   -4.7480   -3.8210 ca        1 4C2     -0.070000
     13 C15         9.1070   -5.2130   -5.1370 ca        1 4C2     -0.115300
     14 C16        10.0270   -6.3910   -5.4830 c3        1 4C2      0.687200
     15 C19         2.7760   -1.7380   -3.4090 c3        1 4C2     -0.125400
     16 C20         1.8610   -0.5600   -3.0510 c3        1 4C2      0.208800
     17 C21         1.5230    0.6900    0.6630 c         1 4C2      0.483300
     18 C           0.0020    0.6250    0.8110 c         1 4C2      0.533300
     19 O          -0.8010    0.8170    1.7040 o         1 4C2     -0.498100
     20 N          -1.2240   -0.0450   -1.3710 nh        1 4C2     -0.824600
     21 S          -3.5700    0.9140   -0.8380 s4        1 4C2      1.732300
     22 O2         -3.8630   -0.3480   -0.4410 o         1 4C2     -0.430900
     23 O3         -3.5420    1.2720   -2.1440 o         1 4C2     -0.430900
     24 C5         -3.3400    3.4710   -0.0040 cc        1 4C2      0.455600
     25 C6         -3.2480    4.1130   -1.3290 c3        1 4C2     -0.175400
     26 N1         -3.3300    4.0930    1.1780 nd        1 4C2     -0.293300
     27 O1         -3.4750    3.1940    2.1550 os        1 4C2     -0.045100
     28 C4         -3.7430    0.8150    2.5870 c3        1 4C2     -0.225400
     29 N2          2.1980    0.0670   -1.7920 nh        1 4C2     -0.630400
     30 N3          5.1670   -2.4270   -3.7190 n4        1 4C2     -0.770000
     31 C18         7.4760   -3.5710   -5.8200 ca        1 4C2     -0.104000
     32 C17         8.3310   -4.6250   -6.1390 ca        1 4C2     -0.070000
     33 F2         11.1430   -6.4720   -4.6920 f         1 4C2     -0.214633
     34 F1          9.4090   -7.6090   -5.3520 f         1 4C2     -0.214633
     35 F          10.4980   -6.3670   -6.7690 f         1 4C2     -0.214633
     36 H1          3.8350    1.2640   -2.3060 h1        1 4C2      0.088200
     37 H2          3.7930    0.7340   -0.5550 h1        1 4C2      0.088200
     38 H3          4.4290   -1.5750   -1.1690 hc        1 4C2      0.085700
     39 H4          5.5950   -0.3700   -1.8700 hc        1 4C2      0.085700
     40 H5          4.4170   -0.4740   -4.0950 hx        1 4C2      0.113700
     41 H6          6.3730   -1.2870   -5.0690 hx        1 4C2      0.111200
     42 H7          6.9650   -1.3370   -3.3320 hx        1 4C2      0.111200
     43 H8          8.1600   -3.3150   -2.4690 ha        1 4C2      0.147000
     44 H9          9.6800   -5.2080   -3.0430 ha        1 4C2      0.184000
     45 H10         2.5080   -2.0700   -4.4470 hc        1 4C2      0.085700
     46 H11         2.5900   -2.5930   -2.7080 hc        1 4C2      0.085700
     47 H12         0.8010   -0.9400   -3.0240 h1        1 4C2      0.088200
     48 H13         1.9370    0.2210   -3.8650 h1        1 4C2      0.088200
     49 H14        -1.4450   -1.0320   -1.3330 hn        1 4C2      0.396300
     50 H15        -4.2680    4.1590   -1.7950 hc        1 4C2      0.095700
     51 H16        -2.8580    5.1620   -1.2480 hc        1 4C2      0.095700
     52 H17        -2.5730    3.5300   -2.0040 hc        1 4C2      0.095700
     53 H18        -4.1750   -0.0860    2.0800 hc        1 4C2      0.132367
     54 H19        -2.7290    0.5450    3.0050 hc        1 4C2      0.132367
     55 H20        -4.3950    1.1130    3.4530 hc        1 4C2      0.132367
     56 H21         5.2870   -3.0580   -2.9170 hn        1 4C2      0.453800
     57 H23         6.8810   -3.0970   -6.6160 ha        1 4C2      0.147000
     58 H24         8.4050   -4.9880   -7.1800 ha        1 4C2      0.184000
     59 HN3        -1.0960    0.2260   -2.3340 hn        1 4C2      0.396300
     60 H32         4.7400   -2.9690   -4.4800 hn        1 4C2      0.453800
@<TRIPOS>BOND
     1    1    5 2   
     2    1   18 1   
     3    1   20 1   
     4    2    3 2   
     5    2   21 1   
     6    2   24 1   
     7    3   27 1   
     8    3   28 1   
     9    4   17 2   
    10    5   17 1   
    11    5   29 1   
    12    6    7 1   
    13    6   29 1   
    14    6   36 1   
    15    6   37 1   
    16    7    8 1   
    17    7   38 1   
    18    7   39 1   
    19    8   15 1   
    20    8   30 1   
    21    8   40 1   
    22    9   10 1   
    23    9   30 1   
    24    9   41 1   
    25    9   42 1   
    26   10   11 ar  
    27   10   31 ar  
    28   11   12 ar  
    29   11   43 1   
    30   12   13 ar  
    31   12   44 1   
    32   13   14 1   
    33   13   32 ar  
    34   14   33 1   
    35   14   34 1   
    36   14   35 1   
    37   15   16 1   
    38   15   45 1   
    39   15   46 1   
    40   16   29 1   
    41   16   47 1   
    42   16   48 1   
    43   17   18 1   
    44   18   19 2   
    45   20   49 1   
    46   20   59 1   
    47   21   22 1   
    48   21   23 1   
    49   24   25 1   
    50   24   26 2   
    51   25   50 1   
    52   25   51 1   
    53   25   52 1   
    54   26   27 1   
    55   28   53 1   
    56   28   54 1   
    57   28   55 1   
    58   30   56 1   
    59   30   60 1   
    60   31   32 ar  
    61   31   57 1   
    62   32   58 1   
@<TRIPOS>SUBSTRUCTURE
     1 4C2         1 TEMP              0 ****  ****    0 ROOT
