@<TRIPOS>MOLECULE
molecule
   64    64     1     0     0
SMALL
bcc


@<TRIPOS>ATOM
      1 C1           0.0000     0.0000     0.0000 cc         1 4C4      -0.362400
      2 C2          -0.7530     0.0070    -1.2610 c          1 4C4       0.619500
      3 C3          -1.5580    -1.1550    -1.6380 cf         1 4C4      -0.138400
      4 O4           1.0430     2.3580    10.3590 o          1 4C4      -0.597000
      5 O5           0.0320    -0.0000     2.3900 os         1 4C4      -0.292200
      6 C7          -3.5980    -2.3780    -4.4020 c2         1 4C4       0.052600
      7 C8          -3.4600    -1.2150    -5.3510 c3         1 4C4      -0.132900
      8 C9          -4.4290    -3.5740    -4.7910 c3         1 4C4      -0.050200
      9 C10         -5.8960    -3.3090    -4.4480 c3         1 4C4      -0.075400
     10 C11         -6.7380    -4.5240    -4.8430 c3         1 4C4      -0.083400
     11 C12         -8.2060    -4.2590    -4.5010 c3         1 4C4      -0.092100
     12 C13          1.4040     0.0000     0.0000 cd         1 4C4       0.252100
     13 C14          2.0760     0.0000     1.2360 cd         1 4C4      -0.330000
     14 C15          1.3720    -0.0010     2.3860 cc         1 4C4       0.188900
     15 C16          2.1100    -0.0020     3.7000 c3         1 4C4      -0.030500
     16 C20          2.1990     2.5410     6.5620 c2         1 4C4      -0.267200
     17 C21          1.8210     2.4300     7.8210 c2         1 4C4       0.009600
     18 C22          1.0890     3.4520     9.8330 c          1 4C4       0.749100
     19 O3           0.7560     4.5510    10.5360 os         1 4C4      -0.438900
     20 C23          0.3500     4.3530    11.9160 c3         1 4C4       0.158700
     21 N            1.4760     3.5670     8.5470 ns         1 4C4      -0.467100
     22 C18          1.7310     1.2470     4.4980 c3         1 4C4      -0.076400
     23 C17          1.7310    -1.2510     4.4970 c3         1 4C4      -0.089100
     24 C           -0.6750    -0.0000     1.2460 c          1 4C4       0.756800
     25 O           -1.8930     0.0040     1.2820 o          1 4C4      -0.580500
     26 O2           2.0940     0.0000    -1.1620 oh         1 4C4      -0.482100
     27 O1          -0.7060     0.9800    -1.9940 o          1 4C4      -0.525100
     28 C4          -1.6970    -2.3170    -0.6880 c3         1 4C4      -0.048900
     29 C5          -2.1800    -1.1860    -2.8400 ce         1 4C4      -0.133000
     30 C6          -2.9850    -2.3480    -3.2170 ce         1 4C4      -0.468000
     31 H8          -3.9630    -1.4480    -6.2820 hc         1 4C4       0.054700
     32 H7          -3.9080    -0.3340    -4.9090 hc         1 4C4       0.054700
     33 H6          -2.4110    -1.0290    -5.5450 hc         1 4C4       0.054700
     34 H10         -4.3320    -3.7490    -5.8550 hc         1 4C4       0.063200
     35 H9          -4.0830    -4.4450    -4.2480 hc         1 4C4       0.063200
     36 H12         -5.9930    -3.1340    -3.3830 hc         1 4C4       0.045700
     37 H11         -6.2420    -2.4380    -4.9910 hc         1 4C4       0.045700
     38 H14         -6.6420    -4.6990    -5.9080 hc         1 4C4       0.042200
     39 H13         -6.3920    -5.3950    -4.3010 hc         1 4C4       0.042200
     40 H17         -8.3030    -4.0880    -3.4350 hc         1 4C4       0.033700
     41 H16         -8.8030    -5.1170    -4.7840 hc         1 4C4       0.033700
     42 H15         -8.5500    -3.3850    -5.0390 hc         1 4C4       0.033700
     43 H19          3.1590    -0.0000     1.2640 ha         1 4C4       0.160000
     44 H            3.1780    -0.0010     3.5140 hc         1 4C4       0.073700
     45 H26          3.6220     1.3550     5.5130 hc         1 4C4       0.047700
     46 H25          2.3850     0.4280     6.3750 hc         1 4C4       0.047700
     47 H27          2.2410     3.5170     6.0940 ha         1 4C4       0.126000
     48 H28          1.7780     1.4540     8.2890 h4         1 4C4       0.175000
     49 H30          0.1120     5.3100    12.3630 h1         1 4C4       0.052367
     50 H31          1.1580     3.8870    12.4660 h1         1 4C4       0.052367
     51 H32         -0.5240     3.7130    11.9470 h1         1 4C4       0.052367
     52 H23          1.9170     2.1300     3.8980 hc         1 4C4       0.058200
     53 H24          0.6800     1.2030     4.7600 hc         1 4C4       0.058200
     54 H20          2.5490    -1.5210     5.1540 hc         1 4C4       0.048700
     55 H22          0.8460    -1.0480     5.0870 hc         1 4C4       0.048700
     56 H21          1.5310    -2.0680     3.8150 hc         1 4C4       0.048700
     57 H18          2.7750     0.6510    -1.1230 ho         1 4C4       0.439000
     58 H2          -0.8050    -2.3930    -0.0780 hc         1 4C4       0.057033
     59 H1          -1.8270    -3.2320    -1.2530 hc         1 4C4       0.057033
     60 H3          -2.5590    -2.1610    -0.0510 hc         1 4C4       0.057033
     61 H4          -2.0810    -0.3500    -3.5230 ha         1 4C4       0.121000
     62 H5          -3.3940    -1.4080    -2.8640 ha         1 4C4       0.315000
     63 H29          1.5200     4.4690     8.1160 hn         1 4C4       0.332500
     64 C19          2.5720     1.3110     5.7750 c3         1 4C4      -0.024200
@<TRIPOS>BOND
     1    11    10 1
     2    10     9 1
     3     9     8 1
     4     8     6 1
     5     6    30 2
     6     6     7 1
     7    30    29 1
     8    28     3 1
     9    29     3 2
    10     3     2 1
    11     4    18 2
    12    26    12 1
    13     2    27 2
    14     2     1 1
    15    18    19 1
    16    18    21 1
    17    19    20 1
    18    21    17 1
    19    12     1 2
    20    12    13 1
    21     1    24 1
    22    17    16 2
    23    13    14 2
    24    24    25 2
    25    24     5 1
    26    16    64 1
    27    64    22 1
    28    22    15 1
    29    14     5 1
    30    14    15 1
    31    15    23 1
    32     7    31 1
    33     7    32 1
    34     7    33 1
    35     8    34 1
    36     8    35 1
    37     9    36 1
    38     9    37 1
    39    10    38 1
    40    10    39 1
    41    11    40 1
    42    11    41 1
    43    11    42 1
    44    13    43 1
    45    15    44 1
    46    64    45 1
    47    64    46 1
    48    16    47 1
    49    17    48 1
    50    20    49 1
    51    20    50 1
    52    20    51 1
    53    22    52 1
    54    22    53 1
    55    23    54 1
    56    23    55 1
    57    23    56 1
    58    26    57 1
    59    28    58 1
    60    28    59 1
    61    28    60 1
    62    29    61 1
    63    30    62 1
    64    21    63 1
@<TRIPOS>SUBSTRUCTURE
     1 4C4         1 TEMP              0 ****  ****    0 ROOT
