@<TRIPOS>MOLECULE
4C4
   64    67     1     0     0
SMALL
bcc


@<TRIPOS>ATOM
      1 C1           0.0000     0.0000     0.0000 c2         1 4C4      -0.356000
      2 C2          -0.7530     0.0070    -1.2610 c2         1 4C4       0.388000
      3 C3          -1.5580    -1.1550    -1.6380 c2         1 4C4      -0.065000
      4 O4           1.0430     2.3580    10.3590 o          1 4C4      -0.369000
      5 O5           0.0320    -0.0000     2.3900 os         1 4C4      -0.131000
      6 C7          -3.5980    -2.3780    -4.4020 c2         1 4C4      -0.002000
      7 C8          -3.4600    -1.2150    -5.3510 c3         1 4C4      -0.075000
      8 C9          -4.4290    -3.5740    -4.7910 c3         1 4C4      -0.079000
      9 C10         -5.8960    -3.3090    -4.4480 c3         1 4C4      -0.102000
     10 C11         -6.7380    -4.5240    -4.8430 c3         1 4C4      -0.108000
     11 C12         -8.2060    -4.2590    -4.5010 c3         1 4C4      -0.111000
     12 C13          1.4040     0.0000     0.0000 c2         1 4C4       0.237000
     13 C14          2.0760     0.0000     1.2360 c2         1 4C4      -0.315000
     14 C15          1.3720    -0.0010     2.3860 c2         1 4C4       0.142000
     15 C16          2.1100    -0.0020     3.7000 c3         1 4C4      -0.045000
     16 C20          2.1990     2.5410     6.5620 c2         1 4C4      -0.681000
     17 C21          1.8210     2.4300     7.8210 c2         1 4C4      -0.095000
     18 C22          1.0890     3.4520     9.8330 c2         1 4C4       0.328000
     19 O3           0.7560     4.5510    10.5360 os         1 4C4      -0.264000
     20 C23          0.3500     4.3530    11.9160 c3         1 4C4       0.098000
     21 N            1.4760     3.5670     8.5470 ny         1 4C4       0.147000
     22 C18          1.7310     1.2470     4.4980 c3         1 4C4      -0.147000
     23 C17          1.7310    -1.2510     4.4970 c3         1 4C4      -0.120000
     24 C           -0.6750    -0.0000     1.2460 c2         1 4C4       0.425000
     25 O           -1.8930     0.0040     1.2820 o          1 4C4      -0.355000
     26 O2           2.0940     0.0000    -1.1620 oh         1 4C4      -0.226000
     27 O1          -0.7060     0.9800    -1.9940 o          1 4C4      -0.266000
     28 C4          -1.6970    -2.3170    -0.6880 c3         1 4C4      -0.120000
     29 C5          -2.1800    -1.1860    -2.8400 c2         1 4C4      -0.329000
     30 C6          -2.9850    -2.3480    -3.2170 c3         1 4C4      -0.258000
     31 H8          -4.0460    -1.4050    -6.2420 hc         1 4C4       0.061667
     32 H7          -2.4190    -1.0930    -5.6240 hc         1 4C4       0.061667
     33 H6          -3.8160    -0.3120    -4.8700 hc         1 4C4       0.061667
     34 H10         -4.0830    -4.4450    -4.2480 hc         1 4C4       0.060500
     35 H9          -4.3320    -3.7500    -5.8550 hc         1 4C4       0.060500
     36 H12         -6.2420    -2.4380    -4.9910 hc         1 4C4       0.061500
     37 H11         -5.9930    -3.1340    -3.3830 hc         1 4C4       0.061500
     38 H14         -6.3920    -5.3950    -4.3010 hc         1 4C4       0.050500
     39 H13         -6.6420    -4.6990    -5.9080 hc         1 4C4       0.050500
     40 H17         -8.8030    -5.1170    -4.7850 hc         1 4C4       0.041000
     41 H16         -8.5500    -3.3850    -5.0390 hc         1 4C4       0.041000
     42 H15         -8.3030    -4.0880    -3.4350 hc         1 4C4       0.041000
     43 H19          3.1590    -0.0000     1.2640 ha         1 4C4       0.140000
     44 H            3.1780    -0.0010     3.5140 hc         1 4C4       0.089000
     45 H26          3.6220     1.3550     5.5130 ha         1 4C4       0.056500
     46 H25          2.3860     0.4280     6.3750 ha         1 4C4       0.056500
     47 H27          1.4840     1.8490     6.1340 DU         1 4C4       0.228000
     48 H28          0.8730     2.9480     7.7340 DU         1 4C4       0.223000
     49 H30         -0.5230     3.7110    11.9470 h1         1 4C4       0.044667
     50 H31          0.1100     5.3100    12.3630 h1         1 4C4       0.044667
     51 H32          1.1590     3.8890    12.4670 h1         1 4C4       0.044667
     52 H23          0.6800     1.2030     4.7600 hc         1 4C4       0.077500
     53 H24          1.9170     2.1300     3.8980 hc         1 4C4       0.077500
     54 H20          2.4990    -1.4550     5.2340 hc         1 4C4       0.055333
     55 H22          1.6430    -2.0950     3.8240 hc         1 4C4       0.055333
     56 H21          0.7850    -1.0870     4.9970 hc         1 4C4       0.055333
     57 H18          2.7220     0.7030    -1.1550 ho         1 4C4       0.221000
     58 H2          -0.9700    -2.2200     0.1090 hc         1 4C4       0.057000
     59 H1          -1.5240    -3.2430    -1.2230 hc         1 4C4       0.057000
     60 H3          -2.6950    -2.3230    -0.2680 hc         1 4C4       0.057000
     61 H4          -1.7710    -2.1250    -3.1930 DU         1 4C4       0.300000
     62 H5          -3.0840    -3.1830    -2.5340 hc         1 4C4       0.104000
     63 H29          1.5620     4.4720     8.1300 hn         1 4C4       0.070000
     64 C19          2.5720     1.3110     5.7750 DU         1 4C4       0.085000
@<TRIPOS>BOND
     1     1     2 1   
     2     1    12 1   
     3     1    24 1   
     4     2     3 1   
     5     2    27 1   
     6     3    28 1   
     7     3    29 1   
     8     4    18 1   
     9     5    14 1   
    10     5    24 1   
    11     6     7 1   
    12     6     8 1   
    13     6    30 1   
    14     7    31 1   
    15     7    32 1   
    16     7    33 1   
    17     8     9 1   
    18     8    34 1   
    19     8    35 1   
    20     9    10 1   
    21     9    36 1   
    22     9    37 1   
    23    10    11 1   
    24    10    38 1   
    25    10    39 1   
    26    11    40 1   
    27    11    41 1   
    28    11    42 1   
    29    12    13 1   
    30    12    26 1   
    31    13    14 1   
    32    13    43 1   
    33    14    15 1   
    34    15    22 1   
    35    15    23 1   
    36    15    44 1   
    37    16    17 1   
    38    16    47 1   
    39    16    64 1   
    40    17    21 1   
    41    17    48 1   
    42    18    19 1   
    43    18    21 1   
    44    19    20 1   
    45    20    49 1   
    46    20    50 1   
    47    20    51 1   
    48    21    48 1   
    49    21    63 1   
    50    22    52 1   
    51    22    53 1   
    52    22    64 1   
    53    23    54 1   
    54    23    55 1   
    55    23    56 1   
    56    24    25 1   
    57    26    57 1   
    58    28    58 1   
    59    28    59 1   
    60    28    60 1   
    61    29    30 1   
    62    29    61 1   
    63    30    61 1   
    64    30    62 1   
    65    45    64 1   
    66    46    64 1   
    67    47    64 1   
@<TRIPOS>SUBSTRUCTURE
     1 4C4         1 TEMP              0 ****  ****    0 ROOT
