@<TRIPOS>MOLECULE
4C5
   51    53     1     0     0
SMALL
bcc


@<TRIPOS>ATOM
      1 O1           0.0000     0.0000     0.0000 o          1 4C5      -0.815800
      2 C1           1.3420     0.0000     0.0000 c          1 4C5       0.953600
      3 O2           1.9470     0.0000     1.0460 o          1 4C5      -0.815800
      4 C2           2.0960    -0.0010    -1.3050 c3         1 4C5      -0.172500
      5 N            3.4680     0.4720    -1.0790 nz         1 4C5       0.072400
      6 C3           2.1340    -1.4220    -1.8710 c3         1 4C5       0.053700
      7 S            3.0410    -1.4240    -3.4420 ss         1 4C5      -0.443200
      8 C4           3.1390    -3.1880    -3.8550 c3         1 4C5       0.282000
      9 C12          3.7510    -3.3490    -5.2230 ca         1 4C5      -0.083800
     10 C17          4.6910    -2.4410    -5.6710 ca         1 4C5      -0.101750
     11 C16          5.2520    -2.5890    -6.9270 ca         1 4C5      -0.094250
     12 C15          4.8730    -3.6460    -7.7320 ca         1 4C5      -0.091500
     13 C14          3.9320    -4.5550    -7.2830 ca         1 4C5      -0.094250
     14 C13          3.3760    -4.4100    -6.0270 ca         1 4C5      -0.101750
     15 C18          3.9930    -3.8960    -2.8360 ca         1 4C5      -0.083800
     16 C23          4.1360    -5.2690    -2.8890 ca         1 4C5      -0.101750
     17 C22          4.9190    -5.9190    -1.9530 ca         1 4C5      -0.094250
     18 C21          5.5600    -5.1940    -0.9650 ca         1 4C5      -0.091500
     19 C20          5.4160    -3.8210    -0.9120 ca         1 4C5      -0.094250
     20 C19          4.6370    -3.1700    -1.8520 ca         1 4C5      -0.101750
     21 C5           1.7540    -3.7820    -3.8520 ca         1 4C5      -0.173300
     22 C11          0.8520    -3.4360    -4.8400 ca         1 4C5      -0.049000
     23 C10         -0.4190    -3.9800    -4.8380 ca         1 4C5      -0.174000
     24 C8          -0.7880    -4.8740    -3.8420 ca         1 4C5       0.170100
     25 O3          -2.0370    -5.4100    -3.8390 os         1 4C5      -0.303900
     26 C9          -2.3480    -6.3230    -2.7840 c3         1 4C5       0.242700
     27 C7           0.1210    -5.2190    -2.8520 ca         1 4C5      -0.174000
     28 C6           1.3910    -4.6770    -2.8620 ca         1 4C5      -0.049000
     29 H2           1.5990     0.6550    -2.0090 hx         1 4C5       0.097700
     30 H3           3.8850     0.7160    -1.9550 hn         1 4C5       0.217800
     31 H4           3.4500     1.2750    -0.4830 hn         1 4C5       0.217800
     32 H6           1.1220    -1.7700    -2.0390 h1         1 4C5       0.085700
     33 H7           2.6290    -2.0790    -1.1670 h1         1 4C5       0.085700
     34 H8           4.9880    -1.6120    -5.0400 ha         1 4C5       0.118500
     35 H9           5.9890    -1.8770    -7.2780 ha         1 4C5       0.105250
     36 H10          5.3110    -3.7610    -8.7160 ha         1 4C5       0.105500
     37 H11          3.6370    -5.3860    -7.9140 ha         1 4C5       0.105250
     38 H12          2.6400    -5.1220    -5.6750 ha         1 4C5       0.118500
     39 H13          3.6350    -5.8370    -3.6630 ha         1 4C5       0.118500
     40 H14          5.0320    -6.9950    -1.9940 ha         1 4C5       0.105250
     41 H15          6.1710    -5.7040    -0.2300 ha         1 4C5       0.105500
     42 H16          5.9200    -3.2530    -0.1390 ha         1 4C5       0.105250
     43 H17          4.5250    -2.0940    -1.8110 ha         1 4C5       0.118500
     44 H18          1.1410    -2.7390    -5.6170 ha         1 4C5       0.125000
     45 H19         -1.1260    -3.7090    -5.6120 ha         1 4C5       0.124000
     46 H20         -3.3670    -6.6720    -2.8980 h1         1 4C5       0.000367
     47 H21         -2.2430    -5.8210    -1.8300 h1         1 4C5       0.000367
     48 H22         -1.6700    -7.1660    -2.8250 h1         1 4C5       0.000367
     49 H23         -0.1640    -5.9180    -2.0750 ha         1 4C5       0.124000
     50 H24          2.1000    -4.9460    -2.0890 ha         1 4C5       0.125000
     51 HN3          3.9980    -0.2470    -0.6270 hn         1 4C5       0.217800
@<TRIPOS>BOND
     1     1     2 1   
     2     2     3 1   
     3     2     4 1   
     4     4     5 1   
     5     4     6 1   
     6     4    29 1   
     7     5    30 1   
     8     5    31 1   
     9     5    51 1   
    10     6     7 1   
    11     6    32 1   
    12     6    33 1   
    13     7     8 1   
    14     8     9 1   
    15     8    15 1   
    16     8    21 1   
    17     9    10 ar  
    18     9    14 ar  
    19    10    11 ar  
    20    10    34 1   
    21    11    12 ar  
    22    11    35 1   
    23    12    13 ar  
    24    12    36 1   
    25    13    14 ar  
    26    13    37 1   
    27    14    38 1   
    28    15    16 ar  
    29    15    20 ar  
    30    16    17 ar  
    31    16    39 1   
    32    17    18 ar  
    33    17    40 1   
    34    18    19 ar  
    35    18    41 1   
    36    19    20 ar  
    37    19    42 1   
    38    20    43 1   
    39    21    22 ar  
    40    21    28 ar  
    41    22    23 ar  
    42    22    44 1   
    43    23    24 ar  
    44    23    45 1   
    45    24    25 1   
    46    24    27 ar  
    47    25    26 1   
    48    26    46 1   
    49    26    47 1   
    50    26    48 1   
    51    27    28 ar  
    52    27    49 1   
    53    28    50 1   
@<TRIPOS>SUBSTRUCTURE
     1 4C5         1 TEMP              0 ****  ****    0 ROOT
