@<TRIPOS>MOLECULE
molecule
   51    53     1     0     0
SMALL
bcc


@<TRIPOS>ATOM
      1 O1           0.0000     0.0000     0.0000 o          1 4C5      -0.772300
      2 C1           1.3420     0.0000     0.0000 c          1 4C5       0.868600
      3 O2           1.9470     0.0000     1.0460 o          1 4C5      -0.772300
      4 C2           2.0960    -0.0010    -1.3050 c3         1 4C5       0.001500
      5 N            3.4680     0.4720    -1.0790 nz         1 4C5      -0.792600
      6 C3           2.1340    -1.4220    -1.8710 c3         1 4C5       0.004700
      7 S            3.0410    -1.4240    -3.4420 ss         1 4C5      -0.413200
      8 C4           3.1390    -3.1880    -3.8550 c3         1 4C5       0.228000
      9 C12          3.7510    -3.3490    -5.2230 ca         1 4C5      -0.075300
     10 C17          4.6910    -2.4410    -5.6710 ca         1 4C5      -0.117250
     11 C16          5.2520    -2.5890    -6.9270 ca         1 4C5      -0.126000
     12 C15          4.8730    -3.6460    -7.7320 ca         1 4C5      -0.119000
     13 C14          3.9320    -4.5550    -7.2830 ca         1 4C5      -0.126000
     14 C13          3.3760    -4.4100    -6.0270 ca         1 4C5      -0.117250
     15 C18          3.9930    -3.8960    -2.8360 ca         1 4C5      -0.075300
     16 C23          4.1360    -5.2690    -2.8890 ca         1 4C5      -0.117250
     17 C22          4.9190    -5.9190    -1.9530 ca         1 4C5      -0.126000
     18 C21          5.5600    -5.1940    -0.9650 ca         1 4C5      -0.119000
     19 C20          5.4160    -3.8210    -0.9120 ca         1 4C5      -0.126000
     20 C19          4.6370    -3.1700    -1.8520 ca         1 4C5      -0.117250
     21 C5           1.7540    -3.7820    -3.8520 ca         1 4C5      -0.152300
     22 C11          0.8520    -3.4360    -4.8400 ca         1 4C5      -0.073000
     23 C10         -0.4190    -3.9800    -4.8380 ca         1 4C5      -0.191000
     24 C8          -0.7880    -4.8740    -3.8420 ca         1 4C5       0.157100
     25 O3          -2.0370    -5.4100    -3.8390 os         1 4C5      -0.324900
     26 C9          -2.3480    -6.3230    -2.7840 c3         1 4C5       0.126700
     27 C7           0.1210    -5.2190    -2.8520 ca         1 4C5      -0.191000
     28 C6           1.3910    -4.6770    -2.8620 ca         1 4C5      -0.073000
     29 H2           1.5990     0.6550    -2.0090 hx         1 4C5       0.114700
     30 H3           3.8850     0.7160    -1.9550 hn         1 4C5       0.443133
     31 H4           3.4500     1.2750    -0.4830 hn         1 4C5       0.443133
     32 H6           1.1220    -1.7700    -2.0390 h1         1 4C5       0.108200
     33 H7           2.6290    -2.0790    -1.1670 h1         1 4C5       0.108200
     34 H8           4.9880    -1.6120    -5.0400 ha         1 4C5       0.136750
     35 H9           5.9890    -1.8770    -7.2780 ha         1 4C5       0.133500
     36 H10          5.3110    -3.7610    -8.7160 ha         1 4C5       0.133500
     37 H11          3.6370    -5.3860    -7.9140 ha         1 4C5       0.133500
     38 H12          2.6400    -5.1220    -5.6750 ha         1 4C5       0.136750
     39 H13          3.6350    -5.8370    -3.6630 ha         1 4C5       0.136750
     40 H14          5.0320    -6.9950    -1.9940 ha         1 4C5       0.133500
     41 H15          6.1710    -5.7040    -0.2300 ha         1 4C5       0.133500
     42 H16          5.9200    -3.2530    -0.1390 ha         1 4C5       0.133500
     43 H17          4.5250    -2.0940    -1.8110 ha         1 4C5       0.136750
     44 H18          1.1410    -2.7390    -5.6170 ha         1 4C5       0.148000
     45 H19         -1.1260    -3.7090    -5.6120 ha         1 4C5       0.146000
     46 H20         -3.3670    -6.6720    -2.8980 h1         1 4C5       0.044367
     47 H21         -2.2430    -5.8210    -1.8300 h1         1 4C5       0.044367
     48 H22         -1.6700    -7.1660    -2.8250 h1         1 4C5       0.044367
     49 H23         -0.1640    -5.9180    -2.0750 ha         1 4C5       0.146000
     50 H24          2.1000    -4.9460    -2.0890 ha         1 4C5       0.148000
     51 HN3          3.9980    -0.2470    -0.6270 hn         1 4C5       0.443133
@<TRIPOS>BOND
     1    12    11 ar
     2    12    13 ar
     3    11    10 ar
     4    13    14 ar
     5    10     9 ar
     6    14     9 ar
     7     9     8 1
     8    28    27 ar
     9    28    21 ar
    10    27    24 ar
    11    20    19 ar
    12    20    15 ar
    13     8    21 1
    14     8    15 1
    15     8     7 1
    16    21    22 ar
    17    19    18 ar
    18    15    16 ar
    19    24    25 1
    20    24    23 ar
    21    25    26 1
    22    22    23 ar
    23    18    17 ar
    24     7     6 1
    25    16    17 ar
    26     6     4 1
    27     5     4 1
    28     4     2 1
    29     2     3 1
    30     2     1 1
    31     4    29 1
    32     5    30 1
    33     5    31 1
    34     6    32 1
    35     6    33 1
    36    10    34 1
    37    11    35 1
    38    12    36 1
    39    13    37 1
    40    14    38 1
    41    16    39 1
    42    17    40 1
    43    18    41 1
    44    19    42 1
    45    20    43 1
    46    22    44 1
    47    23    45 1
    48    26    46 1
    49    26    47 1
    50    26    48 1
    51    27    49 1
    52    28    50 1
    53    51     5 1
@<TRIPOS>SUBSTRUCTURE
     1 4C5         1 TEMP              0 ****  ****    0 ROOT
