@<TRIPOS>MOLECULE
4C6
   57    60     1     0     0
SMALL
bcc


@<TRIPOS>ATOM
      1 C1          0.3720    0.5280    0.5430 cc        1 4C6     -0.409200
      2 C2         -3.0840    1.5040    0.1290 cc        1 4C6     -0.835100
      3 C3         -3.3660    2.3470    1.2350 cd        1 4C6      0.545000
      4 O4          3.1880    1.6120    1.8870 o         1 4C6     -0.383100
      5 C7          1.7240    0.5220    0.1210 cd        1 4C6      0.178800
      6 C8          1.8880   -0.5030   -2.1040 c3        1 4C6      0.187300
      7 C9          2.6280   -1.7900   -2.4690 c3        1 4C6     -0.097400
      8 C10         4.1240   -1.5420   -2.5940 c3        1 4C6     -0.066700
      9 C11         4.8500   -2.8460   -2.9070 c3        1 4C6     -0.026100
     10 C12         6.2640   -2.6160   -3.3080 ca        1 4C6     -0.109300
     11 C13         6.5600   -2.0630   -4.5600 ca        1 4C6     -0.123000
     12 C14         7.8820   -1.8670   -4.9500 ca        1 4C6     -0.126000
     13 C15         8.9340   -2.2220   -4.0960 ca        1 4C6     -0.061300
     14 C16        10.3390   -2.0040   -4.5070 c3        1 4C6     -0.060800
     15 C19         4.6520   -0.9160   -1.3140 c3        1 4C6     -0.097400
     16 C20         3.8910    0.3610   -0.9690 c3        1 4C6      0.187300
     17 C21         2.1310    1.2410    1.4390 c         1 4C6      0.496300
     18 C           0.6520    1.2070    1.8250 c         1 4C6      0.546300
     19 O          -0.0260    1.5920    2.7570 o         1 4C6     -0.484100
     20 N          -0.8660    0.0640    0.0570 n4        1 4C6     -0.483700
     21 S          -1.8300    1.4780   -0.8250 sy        1 4C6      1.521200
     22 O2         -2.0090    0.8560   -2.0490 o         1 4C6     -0.580800
     23 O3         -1.0250    2.5920   -0.7330 o         1 4C6     -0.580800
     24 C5         -4.3300    0.6980    0.0090 cc        1 4C6      0.436600
     25 C6         -4.5800   -0.3430   -1.0080 c3        1 4C6     -0.174400
     26 N1         -5.1870    1.0800    0.9670 nd        1 4C6     -0.313300
     27 O1         -4.6320    2.0470    1.6920 os        1 4C6     -0.062100
     28 C4         -2.6120    3.3910    1.9200 c3        1 4C6     -0.218400
     29 N2          2.4380    0.1620   -0.9280 nh        1 4C6     -0.552400
     30 C18         7.3140   -2.9750   -2.4560 ca        1 4C6     -0.123000
     31 C17         8.6370   -2.7790   -2.8460 ca        1 4C6     -0.126000
     32 H1          1.9700    0.2270   -2.9630 h1        1 4C6      0.075700
     33 H2          0.8020   -0.7360   -1.9450 h1        1 4C6      0.075700
     34 H3          2.2160   -2.1550   -3.4460 hc        1 4C6      0.073950
     35 H4          2.4370   -2.5810   -1.6990 hc        1 4C6      0.073950
     36 H5          4.3000   -0.8260   -3.4460 hc        1 4C6      0.066700
     37 H6          4.3100   -3.3670   -3.7440 hc        1 4C6      0.055700
     38 H7          4.8050   -3.5210   -2.0110 hc        1 4C6      0.055700
     39 H8          5.7420   -1.7920   -5.2440 ha        1 4C6      0.128000
     40 H9          8.1040   -1.4370   -5.9380 ha        1 4C6      0.140000
     41 H10        11.0210   -2.7370   -4.0110 hc        1 4C6      0.052033
     42 H11        10.4520   -2.1090   -5.6140 hc        1 4C6      0.052033
     43 H12        10.6650   -0.9720   -4.2180 hc        1 4C6      0.052033
     44 H13         5.7350   -0.6510   -1.4430 hc        1 4C6      0.073950
     45 H14         4.5810   -1.6500   -0.4700 hc        1 4C6      0.073950
     46 H15         4.0900    1.1430   -1.7590 h1        1 4C6      0.075700
     47 H16         4.2500    0.7570    0.0240 h1        1 4C6      0.075700
     48 H17        -1.3970   -0.3010    0.8520 hn        1 4C6      0.444800
     49 H18        -5.6750   -0.5640   -1.1020 hc        1 4C6      0.089367
     50 H19        -4.0600   -1.2900   -0.7150 hc        1 4C6      0.089367
     51 H20        -4.2000   -0.0110   -2.0090 hc        1 4C6      0.089367
     52 H21        -3.2990    4.0940    2.4610 hc        1 4C6      0.123033
     53 H22        -1.9860    3.9670    1.1870 hc        1 4C6      0.123033
     54 H23        -1.9240    2.9210    2.6800 hc        1 4C6      0.123033
     55 H24         7.0970   -3.4230   -1.4750 ha        1 4C6      0.128000
     56 H25         9.4550   -3.0710   -2.1710 ha        1 4C6      0.140000
     57 HN3        -0.7210   -0.7120   -0.5910 hn        1 4C6      0.444800
@<TRIPOS>BOND
     1    1    5 2
     2    1   18 1
     3    1   20 1
     4    2    3 2
     5    2   21 1
     6    2   24 1
     7    3   27 1
     8    3   28 1
     9    4   17 2
    10    5   17 1
    11    5   29 1
    12    6    7 1
    13    6   29 1
    14    6   32 1
    15    6   33 1
    16    7    8 1
    17    7   34 1
    18    7   35 1
    19    8    9 1
    20    8   15 1
    21    8   36 1
    22    9   10 1
    23    9   37 1
    24    9   38 1
    25   10   11 ar
    26   10   30 ar
    27   11   12 ar
    28   11   39 1
    29   12   13 ar
    30   12   40 1
    31   13   14 1
    32   13   31 ar
    33   14   41 1
    34   14   42 1
    35   14   43 1
    36   15   16 1
    37   15   44 1
    38   15   45 1
    39   16   29 1
    40   16   46 1
    41   16   47 1
    42   17   18 1
    43   18   19 2
    44   20   21 1
    45   20   48 1
    46   20   57 1
    47   21   22 2
    48   21   23 2
    49   24   25 1
    50   24   26 2
    51   25   49 1
    52   25   50 1
    53   25   51 1
    54   26   27 1
    55   28   52 1
    56   28   53 1
    57   28   54 1
    58   30   31 ar
    59   30   55 1
    60   31   56 1
@<TRIPOS>SUBSTRUCTURE
     1 4C6         1 TEMP              0 ****  ****    0 ROOT
