@<TRIPOS>MOLECULE
molecule
   55    54     1     0     0
SMALL
bcc


@<TRIPOS>ATOM
      1 C1           0.0000     0.0000     0.0000 c3         1 4C7       0.233400
      2 O1           1.4290     0.0000     0.0000 os         1 4C7      -0.597200
      3 C2          -0.5090     0.0000     1.4430 c3         1 4C7      -0.090400
      4 C3          -2.0400     0.0010     1.4430 c3         1 4C7      -0.075700
      5 C4          -2.5490     1.3090     0.8340 c3         1 4C7      -0.092100
      6 C5          -2.5500    -0.1250     2.8800 c3         1 4C7      -0.075400
      7 C6          -4.0740    -0.2500     2.8720 c3         1 4C7      -0.085400
      8 C7          -4.5840    -0.3760     4.3090 c3         1 4C7      -0.078400
      9 C8          -6.1090    -0.5010     4.3000 c3         1 4C7      -0.075700
     10 C10         -6.5100    -1.8070     3.6120 c3         1 4C7      -0.091100
     11 C9          -6.6290    -0.5010     5.7390 c3         1 4C7      -0.077400
     12 C11         -8.1590    -0.5000     5.7280 c3         1 4C7      -0.085400
     13 C12         -8.6790    -0.5010     7.1670 c3         1 4C7      -0.077400
     14 C13        -10.2090    -0.5000     7.1570 c3         1 4C7      -0.077700
     15 C14        -10.7290    -0.6260     8.5900 c3         1 4C7      -0.087100
     16 C15        -10.7130     0.8080     6.5450 c3         1 4C7      -0.087100
     17 PA           2.3050    -0.0000    -1.3500 p5         1 4C7       1.425800
     18 O1A          2.0590    -1.3760    -2.1510 o          1 4C7      -0.868000
     19 O2A          1.9030     1.1430    -2.2000 o          1 4C7      -0.868000
     20 O3A          3.8650     0.1310    -0.9770 os         1 4C7      -0.711800
     21 PB           5.1770     0.5860    -1.7940 p5         1 4C7       1.305900
     22 O1B          5.1120     0.0470    -3.1710 o          1 4C7      -0.951167
     23 O2B          5.2440     2.1930    -1.8500 o          1 4C7      -0.951167
     24 O3B          6.4910     0.0190    -1.0580 o          1 4C7      -0.951167
     25 H1          -0.3610     0.8850    -0.5110 h1         1 4C7       0.014200
     26 H2          -0.3610    -0.8850    -0.5110 h1         1 4C7       0.014200
     27 H3          -0.1490    -0.8850     1.9540 hc         1 4C7       0.039700
     28 H4          -0.1480     0.8840     1.9540 hc         1 4C7       0.039700
     29 H5          -2.4010    -0.8350     0.8570 hc         1 4C7       0.044700
     30 H6          -3.1020     1.8640     1.5820 hc         1 4C7       0.031033
     31 H7          -3.1990     1.0880    -0.0050 hc         1 4C7       0.031033
     32 H8          -1.7080     1.9000     0.4930 hc         1 4C7       0.031033
     33 H9          -2.2630     0.7540     3.4440 hc         1 4C7       0.036200
     34 H10         -2.1180    -1.0060     3.3410 hc         1 4C7       0.036200
     35 H11         -4.3610    -1.1290     2.3080 hc         1 4C7       0.039700
     36 H12         -4.5060     0.6310     2.4110 hc         1 4C7       0.039700
     37 H13         -4.2970     0.5030     4.8720 hc         1 4C7       0.037700
     38 H14         -4.1530    -1.2570     4.7690 hc         1 4C7       0.037700
     39 H15         -6.5360     0.3360     3.7610 hc         1 4C7       0.047700
     40 H16         -6.9940    -1.5850     2.6690 hc         1 4C7       0.032700
     41 H17         -7.1940    -2.3550     4.2480 hc         1 4C7       0.032700
     42 H18         -5.6260    -2.4070     3.4320 hc         1 4C7       0.032700
     43 H19         -6.2710     0.3830     6.2530 hc         1 4C7       0.039200
     44 H20         -6.2720    -1.3860     6.2520 hc         1 4C7       0.039200
     45 H21         -8.5170    -1.3840     5.2140 hc         1 4C7       0.042200
     46 H22         -8.5160     0.3860     5.2160 hc         1 4C7       0.042200
     47 H23         -8.3220    -1.3870     7.6790 hc         1 4C7       0.039700
     48 H24         -8.3210     0.3820     7.6820 hc         1 4C7       0.039700
     49 H25        -10.5670    -1.3360     6.5680 hc         1 4C7       0.047700
     50 H26        -10.3410    -1.5340     9.0360 hc         1 4C7       0.030367
     51 H27        -11.8110    -0.6630     8.5790 hc         1 4C7       0.030367
     52 H28        -10.4020     0.2290     9.1690 hc         1 4C7       0.030367
     53 H29        -10.7990     0.6950     5.4710 hc         1 4C7       0.030367
     54 H30        -11.6840     1.0510     6.9600 hc         1 4C7       0.030367
     55 H31        -10.0150     1.6050     6.7690 hc         1 4C7       0.030367
@<TRIPOS>BOND
     1    19    17 1   
     2    18    17 1   
     3     5     4 1   
     4     1     3 1   
     5     1     2 1   
     6    17     2 1   
     7    17    20 1   
     8     3     4 1   
     9     4     6 1   
    10     6     7 1   
    11    20    21 1   
    12     7     8 1   
    13    22    21 1   
    14     8     9 1   
    15    21    23 1   
    16    21    24 1   
    17    11     9 1   
    18    11    12 1   
    19     9    10 1   
    20    15    14 1   
    21    14    16 1   
    22    14    13 1   
    23    12    13 1   
    24     1    25 1   
    25     1    26 1   
    26     3    27 1   
    27     3    28 1   
    28     4    29 1   
    29     5    30 1   
    30     5    31 1   
    31     5    32 1   
    32     6    33 1   
    33     6    34 1   
    34     7    35 1   
    35     7    36 1   
    36     8    37 1   
    37     8    38 1   
    38     9    39 1   
    39    10    40 1   
    40    10    41 1   
    41    10    42 1   
    42    11    43 1   
    43    11    44 1   
    44    12    45 1   
    45    12    46 1   
    46    13    47 1   
    47    13    48 1   
    48    14    49 1   
    49    15    50 1   
    50    15    51 1   
    51    15    52 1   
    52    16    53 1   
    53    16    54 1   
    54    16    55 1   
@<TRIPOS>SUBSTRUCTURE
     1 4C7         1 TEMP              0 ****  ****    0 ROOT
