@<TRIPOS>MOLECULE
molecule
   23    24     1     0     0
SMALL
bcc


@<TRIPOS>ATOM
      1 Br2          0.0000     0.0000     0.0000 br         1 4C8      -0.043100
      2 CAF          1.8910     0.0000     0.0000 ca         1 4C8      -0.032900
      3 CAE          2.5830     0.0000     1.1960 ca         1 4C8      -0.063000
      4 CAD          3.9670    -0.0000     1.1960 ca         1 4C8      -0.021900
      5 Br1          4.9100     0.0000     2.8360 br         1 4C8      -0.063100
      6 CAC          4.6610    -0.0010     0.0000 ca         1 4C8      -0.063000
      7 CAB          3.9740    -0.0010    -1.2000 ca         1 4C8      -0.032900
      8 Br3          4.9230    -0.0010    -2.8350 br         1 4C8      -0.043100
      9 CAA          2.5860    -0.0060    -1.2030 ca         1 4C8       0.147100
     10 OAJ          1.9070    -0.0120    -2.3800 os         1 4C8      -0.217200
     11 CAK          1.5890     1.1850    -2.9390 ca         1 4C8       0.171100
     12 CAP          0.8960     1.2280    -4.1410 ca         1 4C8      -0.040900
     13 Br4          0.3950    -0.3780    -5.0040 br         1 4C8      -0.060100
     14 CAO          0.5730     2.4470    -4.7070 ca         1 4C8      -0.045000
     15 CAN          0.9400     3.6230    -4.0770 ca         1 4C8      -0.051900
     16 Br5          0.4960     5.2900    -4.8530 br         1 4C8      -0.083100
     17 CAM          1.6290     3.5810    -2.8780 ca         1 4C8      -0.053000
     18 CAL          1.9500     2.3650    -2.3060 ca         1 4C8      -0.202000
     19 H1           2.0420    -0.0070     2.1340 ha         1 4C8       0.167000
     20 H2           5.7440    -0.0010     0.0030 ha         1 4C8       0.167000
     21 H3           0.0330     2.4820    -5.6460 ha         1 4C8       0.163000
     22 H4           1.9130     4.5030    -2.3850 ha         1 4C8       0.151000
     23 H5           2.4900     2.3330    -1.3670 ha         1 4C8       0.151000
@<TRIPOS>BOND
     1     1     2 1   
     2    16    15 1   
     3    17    15 ar  
     4    17    18 ar  
     5    15    14 ar  
     6    18    11 ar  
     7    14    12 ar  
     8    11    12 ar  
     9    11    10 1   
    10    12    13 1   
    11     2     3 ar  
    12     2     9 ar  
    13    10     9 1   
    14     3     4 ar  
    15     9     7 ar  
    16     4     5 1   
    17     4     6 ar  
    18     7     6 ar  
    19     7     8 1   
    20     3    19 1   
    21     6    20 1   
    22    14    21 1   
    23    17    22 1   
    24    18    23 1   
@<TRIPOS>SUBSTRUCTURE
     1 4C8         1 TEMP              0 ****  ****    0 ROOT
