@<TRIPOS>MOLECULE
4C9
   72    76     1     0     0
SMALL
bcc


@<TRIPOS>ATOM
      1 C1           0.0000     0.0000     0.0000 c3         1 4C9      -0.026400
      2 C2           1.5300     0.0000     0.0000 c3         1 4C9      -0.052000
      3 C3           2.0400     0.0000     1.4430 c3         1 4C9      -0.033100
      4 C4          -0.1770     1.3520     2.0380 c1         1 4C9       0.219700
      5 C5          -8.5480     6.3070     1.5290 ca         1 4C9      -0.117500
      6 C6          -9.5070     7.3610     1.3470 ca         1 4C9      -0.125000
      7 C7         -11.6520     7.9040    -1.2060 ca         1 4C9       0.073100
      8 C8         -12.7460     8.8270    -1.5730 ca         1 4C9      -0.141000
      9 N1          -9.5130     1.2100     3.3630 nb         1 4C9      -0.756000
     10 C9          -9.6020     2.2700     2.5650 ca         1 4C9       0.609200
     11 C10         -8.4120     2.8630     2.1090 ca         1 4C9      -0.493500
     12 C11         -7.1860     2.3080     2.5180 ca         1 4C9       0.362800
     13 N3          -6.2020     3.0580     1.9440 na         1 4C9       0.361200
     14 C12         -4.7640     2.8310     2.1020 c3         1 4C9      -0.004000
     15 C13         -4.1340     2.5660     0.7320 c3         1 4C9       0.007000
     16 N4          -2.6770     2.4700     0.8920 n          1 4C9      -0.205800
     17 C14         -2.0050     1.3950     0.4330 c          1 4C9       0.584100
     18 C15         -0.5100     1.3100     0.6050 c3         1 4C9       0.018400
     19 C16          2.0390    -1.2500    -0.7210 c3         1 4C9      -0.033100
     20 C17          2.0400     1.2490    -0.7210 c3         1 4C9      -0.033100
     21 N5           0.0790     1.4030     3.1430 n1         1 4C9      -0.390800
     22 C18         -1.9650     3.5670     1.5610 c3         1 4C9      -0.019000
     23 C19         -2.6190     3.8210     2.9230 c3         1 4C9      -0.014400
     24 C20         -4.1160     4.0700     2.7260 c3         1 4C9      -0.039400
     25 N6          -6.7790     4.0780     1.1810 nc         1 4C9      -0.701100
     26 C21         -8.0870     4.0010     1.2500 cd         1 4C9       0.381500
     27 C22         -7.8670     5.5310     0.5090 ca         1 4C9       0.131100
     28 C23         -9.8680     7.7220    -0.2830 ca         1 4C9       0.026100
     29 O2         -10.7650     8.6220    -0.5490 os         1 4C9      -0.109200
     30 C24        -11.8160     6.7430    -1.5800 ca         1 4C9      -0.141000
     31 C25        -12.7360     6.4180    -2.1590 ca         1 4C9      -0.080500
     32 C26        -13.9650     7.0860    -2.6610 ca         1 4C9      -0.121000
     33 C27        -13.7510     8.3560    -2.2330 ca         1 4C9      -0.080500
     34 C28         -9.0410     6.7880    -1.1830 ca         1 4C9      -0.125000
     35 C29         -8.0440     5.6990    -0.7000 ca         1 4C9      -0.117500
     36 N7          -7.2010     1.2430     3.3200 nb         1 4C9      -0.709000
     37 C30         -8.3390     0.7220     3.7210 ca         1 4C9       0.721900
     38 H1          -0.3490    -0.1840    -1.0090 hc         1 4C9       0.043700
     39 H3           1.5450    -0.7460     2.0530 hc         1 4C9       0.015478
     40 H4           3.0630    -0.1200     1.7790 hc         1 4C9       0.015478
     41 H5           1.7430     0.9310     1.9100 hc         1 4C9       0.015478
     42 H6          -8.4760     5.9180     2.5380 ha         1 4C9       0.123000
     43 H7         -10.3540     7.7810     1.8760 ha         1 4C9       0.118000
     44 H8         -12.6220     9.7900    -1.0920 ha         1 4C9       0.128000
     45 H9         -11.6450     2.5660     2.8230 hn         1 4C9       0.249800
     46 H10        -11.0560     3.6530     1.8770 hn         1 4C9       0.249800
     47 H11         -4.5970     1.9760     2.7460 h1         1 4C9       0.068700
     48 H12         -4.1730     1.5970     0.2500 h1         1 4C9       0.059700
     49 H13         -4.1160     3.2230    -0.1280 h1         1 4C9       0.059700
     50 H15          1.8250    -0.8490    -1.7050 hc         1 4C9       0.015478
     51 H16          3.1090    -1.0930    -0.7710 hc         1 4C9       0.015478
     52 H17          1.5920    -2.1000    -0.2190 hc         1 4C9       0.015478
     53 H18          1.8230     2.3080    -0.6600 hc         1 4C9       0.015478
     54 H19          3.0920     1.0030    -0.8080 hc         1 4C9       0.015478
     55 H20          1.7770     1.0970    -1.7610 hc         1 4C9       0.015478
     56 H21         -0.8940     3.4280     1.6500 h1         1 4C9       0.033700
     57 H22         -2.1750     4.2270     0.7280 h1         1 4C9       0.033700
     58 H23         -2.3510     2.8760     3.3800 hc         1 4C9       0.046200
     59 H24         -1.9680     4.6720     3.0840 hc         1 4C9       0.046200
     60 H25         -4.5430     4.9340     2.2320 hc         1 4C9       0.039200
     61 H26         -4.3960     4.0460     3.7720 hc         1 4C9       0.039200
     62 H27        -11.0130     6.1100    -1.2230 ha         1 4C9       0.128000
     63 H28        -12.6570     5.4340    -2.6030 ha         1 4C9       0.077500
     64 H29        -14.7350     6.5970    -3.2450 ha         1 4C9       0.146000
     65 H30        -14.7130     8.8190    -2.4170 ha         1 4C9       0.077500
     66 H31         -8.8130     7.2060    -2.1550 ha         1 4C9       0.118000
     67 H32         -7.3140     5.6870    -1.5000 ha         1 4C9       0.123000
     68 H33         -8.2420    -0.1470     4.3600 h5         1 4C9      -0.003900
     69 H34         -0.0410     2.1470     0.1010 hc         1 4C9       0.064700
     70 H35         -0.2320    -0.9290     0.5070 hc         1 4C9       0.043700
     71 O1          -2.6040     0.4960    -0.1190 o          1 4C9      -0.632100
     72 N2         -10.7700     2.9640     2.5450 nv         1 4C9      -0.447500
@<TRIPOS>BOND
     1     1     2 1   
     2     1    18 1   
     3     1    38 1   
     4     1    70 1   
     5     2     3 1   
     6     2    19 1   
     7     2    20 1   
     8     3    39 1   
     9     3    40 1   
    10     3    41 1   
    11     4    18 1   
    12     4    21 3   
    13     5     6 ar  
    14     5    27 ar  
    15     5    42 1   
    16     6    28 ar  
    17     6    43 1   
    18     7     8 ar  
    19     7    29 1   
    20     7    30 ar  
    21     8    33 ar  
    22     8    44 1   
    23     9    10 ar  
    24     9    37 ar  
    25    10    11 ar  
    26    10    72 1   
    27    11    12 ar  
    28    11    26 1   
    29    12    13 1   
    30    12    36 ar  
    31    13    14 1   
    32    13    25 1   
    33    14    15 1   
    34    14    24 1   
    35    14    47 1   
    36    15    16 1   
    37    15    48 1   
    38    15    49 1   
    39    16    17 1   
    40    16    22 1   
    41    17    18 1   
    42    17    71 2   
    43    18    69 1   
    44    19    50 1   
    45    19    51 1   
    46    19    52 1   
    47    20    53 1   
    48    20    54 1   
    49    20    55 1   
    50    22    23 1   
    51    22    56 1   
    52    22    57 1   
    53    23    24 1   
    54    23    58 1   
    55    23    59 1   
    56    24    60 1   
    57    24    61 1   
    58    25    26 2   
    59    26    27 1   
    60    27    35 ar  
    61    28    29 1   
    62    28    34 ar  
    63    30    31 ar  
    64    30    62 1   
    65    31    32 ar  
    66    31    63 1   
    67    32    33 ar  
    68    32    64 1   
    69    33    65 1   
    70    34    35 ar  
    71    34    66 1   
    72    35    67 1   
    73    36    37 ar  
    74    37    68 1   
    75    45    72 1   
    76    46    72 1   
@<TRIPOS>SUBSTRUCTURE
     1 4C9         1 TEMP              0 ****  ****    0 ROOT
