@<TRIPOS>MOLECULE
4CC
   60    63     1     0     0
SMALL
bcc


@<TRIPOS>ATOM
      1 N3           0.0000     0.0000     0.0000 na         1 4CC       0.320700
      2 C4          -1.6570    -0.0130     1.9340 ca         1 4CC      -0.096000
      3 C5           0.6700    -0.0020     3.4790 ca         1 4CC       0.020000
      4 C7           1.3610     0.0000     0.0000 cc         1 4CC       0.126800
      5 C8          -0.8670    -0.0020    -1.1810 c3         1 4CC      -0.006400
      6 C10         -0.5850    -0.0050     4.0830 ca         1 4CC      -0.159600
      7 C17         -1.9130    -0.4910     7.5320 ca         1 4CC       0.376200
      8 C20          3.5520     2.9450    -3.1390 ca         1 4CC      -0.191500
      9 C21         -1.2100     0.4760     8.2410 ca         1 4CC      -0.268300
     10 C24          4.5800     0.8230    -4.6090 ca         1 4CC      -0.052000
     11 C26         -1.3770     0.5590     9.6120 ca         1 4CC      -0.056000
     12 C28         -5.0730    -1.3580     4.5480 c          1 4CC       0.979600
     13 C1          -0.4120    -0.0060     1.3150 ca         1 4CC      -0.230200
     14 C2           0.7620    -0.0030     2.0890 ca         1 4CC       0.026400
     15 N6           1.8080     0.0000     1.2210 nd         1 4CC      -0.477100
     16 C9          -1.7450    -0.0170     3.2960 ca         1 4CC      -0.070000
     17 C11          2.2240    -0.0010    -1.2350 c3         1 4CC       0.170500
     18 C12         -0.6940    -0.0050     5.5550 c          1 4CC       0.597700
     19 N13          2.5040     1.3800    -1.6370 nu         1 4CC      -0.337600
     20 N14         -1.7490    -0.5910     6.1520 n          1 4CC      -0.034300
     21 O15          0.1700     0.5230     6.2280 o          1 4CC      -0.669100
     22 C16          3.2870     1.6340    -2.7600 ca         1 4CC       0.136600
     23 C18         -2.7270    -1.3320     5.3510 c3         1 4CC      -0.024000
     24 C19          3.8040     0.5750    -3.5000 ca         1 4CC      -0.191500
     25 N22         -2.7310    -1.3240     8.1580 nb         1 4CC      -0.586000
     26 C23         -4.0680    -0.5960     5.3730 c3         1 4CC      -0.162400
     27 C25          4.3270     3.1990    -4.2480 ca         1 4CC      -0.052000
     28 C27         -2.9100    -1.2670     9.4630 ca         1 4CC       0.423200
     29 C29          4.8470     2.1390    -4.9920 ca         1 4CC      -0.284900
     30 C30         -2.2440    -0.3320    10.2300 ca         1 4CC      -0.262300
     31 O31         -6.3270    -0.8960     4.4230 o          1 4CC      -0.893300
     32 O32         -4.7500    -2.3840     3.9990 o          1 4CC      -0.893300
     33 C33          5.6800     2.4090    -6.1840 ce         1 4CC       0.235800
     34 N34          6.1930     1.3610    -6.9180 nz         1 4CC       0.193400
     35 N35          5.9280     3.6380    -6.5420 n2         1 4CC      -0.545100
     36 H1          -2.5590    -0.0220     1.3350 ha         1 4CC       0.120000
     37 H2           1.5670     0.0070     4.0860 ha         1 4CC       0.126000
     38 H3          -1.9040    -0.0140    -0.8680 h1         1 4CC       0.022367
     39 H4          -0.6610    -0.8810    -1.7790 h1         1 4CC       0.022367
     40 H5          -0.6780     0.8880    -1.7700 h1         1 4CC       0.022367
     41 H6           3.1990     3.8320    -2.6270 ha         1 4CC       0.135500
     42 H7          -0.5410     1.1550     7.7280 ha         1 4CC       0.178000
     43 H8           4.8680    -0.1370    -5.0200 ha         1 4CC       0.113000
     44 H9          -0.8420     1.3020    10.1910 ha         1 4CC       0.099000
     45 H10         -2.7180    -0.0180     3.7720 ha         1 4CC       0.191000
     46 H11          1.7060    -0.5120    -2.0370 h1         1 4CC       0.030700
     47 H12          3.1560    -0.5110    -1.0240 h1         1 4CC       0.030700
     48 H13          2.1600     2.1410    -1.0840 hn         1 4CC       0.313800
     49 H14         -2.8530    -2.3260     5.7640 h1         1 4CC       0.065200
     50 H15         -2.3730    -1.4080     4.3300 h1         1 4CC       0.065200
     51 H16          3.7700    -0.5030    -3.4070 ha         1 4CC       0.135500
     52 H17         -4.4220    -0.5200     6.3940 hc         1 4CC       0.022200
     53 H18         -3.9420     0.3980     4.9600 hc         1 4CC       0.022200
     54 H19          4.3770     4.2790    -4.3210 ha         1 4CC       0.113000
     55 H20         -3.5880    -1.9650     9.9400 h4         1 4CC      -0.022900
     56 H21         -2.3970    -0.2930    11.3010 ha         1 4CC       0.105000
     57 H23          6.7250     1.7210    -7.6860 hn         1 4CC       0.216467
     58 H24          5.4420     0.7990    -7.2670 hn         1 4CC       0.216467
     59 H25          5.5560     4.4000    -6.0110 hn         1 4CC       0.378400
     60 H343         6.7840     0.8030    -6.3350 hn         1 4CC       0.216467
@<TRIPOS>BOND
     1     1     4 1   
     2     1     5 1   
     3     1    13 1   
     4     2    13 ar  
     5     2    16 ar  
     6     2    36 1   
     7     3     6 ar  
     8     3    14 ar  
     9     3    37 1   
    10     4    15 2   
    11     4    17 1   
    12     5    38 1   
    13     5    39 1   
    14     5    40 1   
    15     6    16 ar  
    16     6    18 1   
    17     7     9 ar  
    18     7    20 1   
    19     7    25 ar  
    20     8    22 ar  
    21     8    27 ar  
    22     8    41 1   
    23     9    11 ar  
    24     9    42 1   
    25    10    24 ar  
    26    10    29 ar  
    27    10    43 1   
    28    11    30 ar  
    29    11    44 1   
    30    12    26 1   
    31    12    31 1   
    32    12    32 1   
    33    13    14 ar  
    34    14    15 1   
    35    16    45 1   
    36    17    19 1   
    37    17    46 1   
    38    17    47 1   
    39    18    20 1   
    40    18    21 2   
    41    19    22 1   
    42    19    48 1   
    43    20    23 1   
    44    22    24 ar  
    45    23    26 1   
    46    23    49 1   
    47    23    50 1   
    48    24    51 1   
    49    25    28 ar  
    50    26    52 1   
    51    26    53 1   
    52    27    29 ar  
    53    27    54 1   
    54    28    30 ar  
    55    28    55 1   
    56    29    33 1   
    57    30    56 1   
    58    33    34 1   
    59    33    35 2   
    60    34    57 1   
    61    34    58 1   
    62    34    60 1   
    63    35    59 1   
@<TRIPOS>SUBSTRUCTURE
     1 4CC         1 TEMP              0 ****  ****    0 ROOT
