@<TRIPOS>MOLECULE
molecule
   60    63     1     0     0
SMALL
bcc


@<TRIPOS>ATOM
      1 N3           0.0000     0.0000     0.0000 na         1 4CC      -0.148300
      2 C4          -1.6570    -0.0130     1.9340 ca         1 4CC      -0.143000
      3 C5           0.6700    -0.0020     3.4790 ca         1 4CC      -0.013000
      4 C7           1.3610     0.0000     0.0000 cc         1 4CC       0.340800
      5 C8          -0.8670    -0.0020    -1.1810 c3         1 4CC       0.036600
      6 C10         -0.5850    -0.0050     4.0830 ca         1 4CC      -0.155600
      7 C17         -1.9130    -0.4910     7.5320 ca         1 4CC       0.560200
      8 C20          3.5520     2.9450    -3.1390 ca         1 4CC      -0.216000
      9 C21         -1.2100     0.4760     8.2410 ca         1 4CC      -0.275300
     10 C24          4.5800     0.8230    -4.6090 ca         1 4CC      -0.056000
     11 C26         -1.3770     0.5590     9.6120 ca         1 4CC      -0.087000
     12 C28         -5.0730    -1.3580     4.5480 c          1 4CC       0.889600
     13 C1          -0.4120    -0.0060     1.3150 ca         1 4CC      -0.057200
     14 C2           0.7620    -0.0030     2.0890 ca         1 4CC       0.054400
     15 N6           1.8080     0.0000     1.2210 nd         1 4CC      -0.568100
     16 C9          -1.7450    -0.0170     3.2960 ca         1 4CC      -0.065000
     17 C11          2.2240    -0.0010    -1.2350 c3         1 4CC       0.234500
     18 C12         -0.6940    -0.0050     5.5550 c          1 4CC       0.682700
     19 N13          2.5040     1.3800    -1.6370 nu         1 4CC      -0.770600
     20 N14         -1.7490    -0.5910     6.1520 n          1 4CC      -0.437300
     21 O15          0.1700     0.5230     6.2280 o          1 4CC      -0.625100
     22 C16          3.2870     1.6340    -2.7600 ca         1 4CC       0.289600
     23 C18         -2.7270    -1.3320     5.3510 c3         1 4CC       0.080000
     24 C19          3.8040     0.5750    -3.5000 ca         1 4CC      -0.216000
     25 N22         -2.7310    -1.3240     8.1580 nb         1 4CC      -0.709000
     26 C23         -4.0680    -0.5960     5.3730 c3         1 4CC      -0.212400
     27 C25          4.3270     3.1990    -4.2480 ca         1 4CC      -0.056000
     28 C27         -2.9100    -1.2670     9.4630 ca         1 4CC       0.444200
     29 C29          4.8470     2.1390    -4.9920 ca         1 4CC      -0.260900
     30 C30         -2.2440    -0.3320    10.2300 ca         1 4CC      -0.295300
     31 O31         -6.3270    -0.8960     4.4230 o          1 4CC      -0.845300
     32 O32         -4.7500    -2.3840     3.9990 o          1 4CC      -0.845300
     33 C33          5.6800     2.4090    -6.1840 ce         1 4CC       0.556800
     34 N34          6.1930     1.3610    -6.9180 nz         1 4CC      -0.799600
     35 N35          5.9280     3.6380    -6.5420 n2         1 4CC      -0.715100
     36 H1          -2.5590    -0.0220     1.3350 ha         1 4CC       0.148000
     37 H2           1.5670     0.0070     4.0860 ha         1 4CC       0.160000
     38 H3          -0.4390     0.6360    -1.9450 h1         1 4CC       0.053700
     39 H4          -0.9570    -1.0120    -1.5620 h1         1 4CC       0.053700
     40 H5          -1.8480     0.3690    -0.9090 h1         1 4CC       0.053700
     41 H6           3.2360     3.8750    -2.6820 ha         1 4CC       0.162500
     42 H7          -0.5410     1.1550     7.7280 ha         1 4CC       0.186000
     43 H8           4.9250    -0.1170    -5.0230 ha         1 4CC       0.142000
     44 H9          -0.8420     1.3020    10.1910 ha         1 4CC       0.128000
     45 H10         -2.7180    -0.0180     3.7720 ha         1 4CC       0.208000
     46 H11          3.1560    -0.5110    -1.0240 h1         1 4CC       0.065200
     47 H12          1.7060    -0.5120    -2.0370 h1         1 4CC       0.065200
     48 H13          2.1600     2.1410    -1.0840 hn         1 4CC       0.469800
     49 H14         -2.8530    -2.3250     5.7640 h1         1 4CC       0.080700
     50 H15         -2.3730    -1.4080     4.3300 h1         1 4CC       0.080700
     51 H16          3.8200    -0.5050    -3.4210 ha         1 4CC       0.162500
     52 H17         -4.4220    -0.5200     6.3940 hc         1 4CC       0.046200
     53 H18         -3.9420     0.3980     4.9600 hc         1 4CC       0.046200
     54 H19          4.4320     4.2600    -4.4430 ha         1 4CC       0.142000
     55 H20         -3.5880    -1.9650     9.9400 h4         1 4CC       0.021100
     56 H21         -2.3970    -0.2930    11.3010 ha         1 4CC       0.127000
     57 H23          6.8290     0.8360    -6.3510 hn         1 4CC       0.459467
     58 H24          6.6770     1.7180    -7.7180 hn         1 4CC       0.459467
     59 H25          6.4910     3.8190    -7.3490 hn         1 4CC       0.419400
     60 H343         5.4460     0.7660    -7.2190 hn         1 4CC       0.459467
@<TRIPOS>BOND
     1    31    12 1   
     2    32    12 1   
     3    12    26 1   
     4    26    23 1   
     5    23    20 1   
     6     9    11 ar  
     7     9     7 ar  
     8    11    30 ar  
     9    21    18 2   
    10    20     7 1   
    11    20    18 1   
    12     7    25 ar  
    13    18     6 1   
    14    30    28 ar  
    15    25    28 ar  
    16     3     6 ar  
    17     3    14 ar  
    18     6    16 ar  
    19    14    15 1   
    20    14    13 ar  
    21    16     2 ar  
    22    15     4 2   
    23     8    27 ar  
    24     8    22 ar  
    25    27    29 ar  
    26    13     2 ar  
    27    13     1 1   
    28    19    22 1   
    29    19    17 1   
    30    22    24 ar  
    31     4     1 1   
    32     4    17 1   
    33    35    33 2   
    34    29    33 1   
    35    29    10 ar  
    36    33    34 1   
    37     1     5 1   
    38    24    10 ar  
    39     2    36 1   
    40     3    37 1   
    41     5    38 1   
    42     5    39 1   
    43     5    40 1   
    44     8    41 1   
    45     9    42 1   
    46    10    43 1   
    47    11    44 1   
    48    16    45 1   
    49    17    46 1   
    50    17    47 1   
    51    19    48 1   
    52    23    49 1   
    53    23    50 1   
    54    24    51 1   
    55    26    52 1   
    56    26    53 1   
    57    27    54 1   
    58    28    55 1   
    59    30    56 1   
    60    34    57 1   
    61    34    58 1   
    62    35    59 1   
    63    60    34 1   
@<TRIPOS>SUBSTRUCTURE
     1 4CC         1 TEMP              0 ****  ****    0 ROOT
