@<TRIPOS>MOLECULE
molecule
   41    43     1     0     0
SMALL
bcc


@<TRIPOS>ATOM
      1 N1           0.0000     0.0000     0.0000 n          1 4CD      -0.494800
      2 C4           1.4700     0.0000     0.0000 c3         1 4CD       0.165000
      3 C5           1.9830     1.2340    -0.6950 ca         1 4CD      -0.087300
      4 C6           1.1980     2.3700    -0.7560 ca         1 4CD      -0.103000
      5 C7           1.6680     3.5030    -1.3940 ca         1 4CD      -0.130000
      6 C8           2.9230     3.4990    -1.9720 ca         1 4CD      -0.124000
      7 C10          3.2410     1.2330    -1.2690 ca         1 4CD      -0.071300
      8 C13         -2.8900     0.5450     0.1090 ca         1 4CD      -0.062000
      9 C15         -5.0060    -0.2660    -0.6820 ca         1 4CD       0.173100
     10 C17         -3.0050    -0.8350    -1.8790 ca         1 4CD       0.204100
     11 C1           1.9270     0.0000     1.4750 c3         1 4CD      -0.088400
     12 C2           0.6940    -0.5720     2.2210 c3         1 4CD      -0.097400
     13 C3          -0.4730     0.0250     1.3960 c3         1 4CD       0.087000
     14 C9           3.7090     2.3640    -1.9110 ca         1 4CD      -0.125000
     15 C11          4.0990    -0.0030    -1.1980 c3         1 4CD      -0.050800
     16 C12         -2.2480    -0.1020    -0.9520 ca         1 4CD      -0.173600
     17 C14         -4.2570     0.4630     0.2390 ca         1 4CD      -0.048600
     18 C16         -4.3800    -0.9110    -1.7370 ca         1 4CD      -0.254000
     19 O2          -6.3540    -0.3430    -0.5460 oh         1 4CD      -0.511100
     20 C18         -0.7850    -0.0160    -1.0960 c          1 4CD       0.694700
     21 O3          -0.2850     0.0420    -2.2030 o          1 4CD      -0.566100
     22 Cl1         -5.0510     1.2670     1.5570 cl         1 4CD      -0.092400
     23 H4           1.8370    -0.8890    -0.4980 h1         1 4CD       0.071700
     24 H6           0.2140     2.3730    -0.3030 ha         1 4CD       0.128000
     25 H7           1.0520     4.3930    -1.4420 ha         1 4CD       0.127000
     26 H8           3.2910     4.3860    -2.4740 ha         1 4CD       0.127000
     27 H13         -2.3100     1.1130     0.8270 ha         1 4CD       0.160000
     28 H1           2.7870    -0.6460     1.6080 hc         1 4CD       0.060200
     29 H1A          2.1410     1.0080     1.8080 hc         1 4CD       0.060200
     30 H2           0.6640    -0.2170     3.2440 hc         1 4CD       0.057700
     31 H2A          0.6830    -1.6540     2.1770 hc         1 4CD       0.057700
     32 H3          -1.3600    -0.5870     1.5030 h1         1 4CD       0.048700
     33 H3A         -0.6700     1.0440     1.7070 h1         1 4CD       0.048700
     34 H9           4.6930     2.3610    -2.3630 ha         1 4CD       0.129000
     35 H11          4.3450    -0.2120    -0.1640 hc         1 4CD       0.043033
     36 H11A         5.0110     0.1580    -1.7600 hc         1 4CD       0.043033
     37 H11B         3.5590    -0.8430    -1.6170 hc         1 4CD       0.043033
     38 H16         -4.9670    -1.4760    -2.4510 ha         1 4CD       0.152000
     39 HO1         -2.9880    -2.0820    -3.3040 ho         1 4CD       0.423000
     40 HO2         -6.7590     0.3650    -1.0200 ho         1 4CD       0.432000
     41 O1          -2.3910    -1.4660    -2.9120 oh         1 4CD      -0.457100
@<TRIPOS>BOND
     1     1     2 1   
     2     1    13 1   
     3     1    20 1   
     4     2     3 1   
     5     2    11 1   
     6     3     4 ar  
     7     3     7 ar  
     8     4     5 ar  
     9     5     6 ar  
    10     6    14 ar  
    11     7    14 ar  
    12     7    15 1   
    13     8    16 ar  
    14     8    17 ar  
    15     9    17 ar  
    16     9    18 ar  
    17     9    19 1   
    18    10    16 ar  
    19    10    18 ar  
    20    10    41 1   
    21    11    12 1   
    22    12    13 1   
    23    16    20 1   
    24    17    22 1   
    25    20    21 2   
    26     2    23 1   
    27     4    24 1   
    28     5    25 1   
    29     6    26 1   
    30     8    27 1   
    31    11    28 1   
    32    11    29 1   
    33    12    30 1   
    34    12    31 1   
    35    13    32 1   
    36    13    33 1   
    37    14    34 1   
    38    15    35 1   
    39    15    36 1   
    40    15    37 1   
    41    18    38 1   
    42    41    39 1   
    43    19    40 1   
@<TRIPOS>SUBSTRUCTURE
     1 4CD         1 TEMP              0 ****  ****    0 ROOT
