@<TRIPOS>MOLECULE
4CE
   74    81     1     0     0
SMALL
bcc


@<TRIPOS>ATOM
      1 C13          0.0000     0.0000     0.0000 ca         1 4CE       0.004000
      2 C17          2.0900     0.0000     1.2090 ca         1 4CE      -0.044000
      3 C16          1.4160     0.0000     2.4090 ca         1 4CE      -0.162000
      4 C15          0.0250     0.0020     2.4270 ca         1 4CE      -0.046000
      5 C19         -2.1570     0.0030     1.2530 c2         1 4CE       0.188000
      6 C20         -2.7740     0.0040     2.4720 c2         1 4CE      -0.334000
      7 C21         -2.0100     0.0040     3.6490 c2         1 4CE       0.256000
      8 C12          1.3880     0.0000     0.0000 ca         1 4CE      -0.038000
      9 C34          5.7180     5.9160    -8.4140 c2         1 4CE      -0.231000
     10 C27          8.6550     2.9720    -9.8440 c2         1 4CE      -0.140000
     11 N1           1.9860    -4.2800    -6.3470 n          1 4CE      -0.007000
     12 C2           1.9060    -5.2250    -5.2230 c3         1 4CE      -0.070000
     13 C3           0.6030    -6.0210    -5.3480 c3         1 4CE      -0.098500
     14 N4           0.5340    -6.6330    -6.6820 n3         1 4CE      -0.072000
     15 C5           0.4900    -5.6110    -7.7360 c3         1 4CE      -0.098500
     16 C6           1.7890    -4.7980    -7.7090 c3         1 4CE      -0.070000
     17 C7           2.6420    -0.4140    -3.3460 c2         1 4CE      -0.278000
     18 N8           3.6300     0.3640    -2.8340 na         1 4CE       0.400000
     19 C9           3.3090     0.6270    -1.5320 c2         1 4CE      -0.379000
     20 C10          2.1290    -0.0020    -1.2860 c2         1 4CE      -0.061000
     21 N11          1.7510    -0.6290    -2.4190 n2         1 4CE      -0.067000
     22 C14         -0.6890     0.0020     1.2140 ca         1 4CE      -0.127000
     23 N22         -0.6670     0.0020     3.6220 ns         1 4CE       0.180000
     24 O23         -2.5810     0.0040     4.7260 o          1 4CE      -0.424000
     25 O24         -2.8810     0.0020     0.1090 oh         1 4CE      -0.223000
     26 C25          2.5820    -0.9380    -4.7570 c3         1 4CE       0.064000
     27 C26          7.6760     3.9330    -9.6820 c2         1 4CE      -0.032000
     28 C28          8.5110     1.7190    -9.2680 c2         1 4CE      -0.059000
     29 C29          7.3890     1.4220    -8.5210 c2         1 4CE      -0.170000
     30 C30          6.3930     2.3870    -8.3460 c3         1 4CE       0.077000
     31 C31          6.5400     3.6510    -8.9400 c2         1 4CE      -0.195000
     32 N32          5.5490     4.6240    -8.7750 na         1 4CE       0.342000
     33 N35          4.5330     6.4660    -8.3750 n2         1 4CE      -0.127000
     34 N36          3.6260     5.6120    -8.6870 n2         1 4CE       0.039000
     35 N37          4.1620     4.4690    -8.9510 n2         1 4CE      -0.231000
     36 C38          5.1950     2.0780    -7.5520 c2         1 4CE       0.057000
     37 C39          5.1030     0.8990    -6.9020 c2         1 4CE      -0.174000
     38 O41          3.0010     1.3980    -6.0410 o          1 4CE      -0.408000
     39 N42          3.8170    -0.5850    -5.4620 n7         1 4CE      -0.028000
     40 C43          2.4280    -2.4610    -4.7290 c3         1 4CE      -0.146000
     41 C44          2.2280    -2.9700    -6.1330 c2         1 4CE       0.231000
     42 O45          2.2860    -2.2030    -7.0710 o          1 4CE      -0.423000
     43 C46         -0.6150    -7.5440    -6.7840 c3         1 4CE      -0.087000
     44 H56         -0.5450     0.0000    -0.9360 ha         1 4CE       0.133000
     45 H58          3.1730     0.0000     1.2020 ha         1 4CE       0.112000
     46 H57          1.9690     0.0000     3.3410 ha         1 4CE       0.114000
     47 H59         -3.8560     0.0050     2.5300 ha         1 4CE       0.143000
     48 H66          6.6600     6.4040    -8.1960 h5         1 4CE       0.173000
     49 H64          9.5400     3.1980   -10.4270 ha         1 4CE       0.126000
     50 H48          1.9100    -4.6780    -4.2870 h1         1 4CE       0.075000
     51 H47          2.7510    -5.9030    -5.2580 h1         1 4CE       0.075000
     52 H50         -0.2410    -5.3550    -5.2140 h1         1 4CE       0.058250
     53 H49          0.5810    -6.7980    -4.5940 h1         1 4CE       0.058250
     54 H51          0.3870    -6.0930    -8.7010 h1         1 4CE       0.058250
     55 H52         -0.3520    -4.9510    -7.5630 h1         1 4CE       0.058250
     56 H54          2.6230    -5.4360    -7.9790 h1         1 4CE       0.075000
     57 H53          1.7160    -3.9720    -8.4050 h1         1 4CE       0.075000
     58 H55          4.4420     0.6880    -3.3210 hn         1 4CE       0.080000
     59 H60         -0.1580     0.0010     4.4840 hn         1 4CE       0.090000
     60 H61         -3.7200     0.4010     0.2690 ho         1 4CE       0.215000
     61 H62          1.7350    -0.4990    -5.2710 h1         1 4CE       0.131000
     62 H63          7.7950     4.9080   -10.1390 ha         1 4CE       0.116000
     63 H65          7.2820     0.4430    -8.0690 ha         1 4CE       0.139000
     64 H67          5.3930     1.6830    -8.5420 DU         1 4CE       0.074000
     65 H68          4.1580     0.5750    -7.3210 DU         1 4CE       0.067000
     66 H69          4.5970    -1.2120    -5.4490 hn         1 4CE       0.098000
     67 H71          3.3210    -2.9060    -4.3070 hc         1 4CE       0.090500
     68 H70          1.5700    -2.7260    -4.1230 hc         1 4CE       0.090500
     69 H73         -0.5420    -8.3030    -6.0150 h1         1 4CE       0.042333
     70 H74         -0.6160    -8.0160    -7.7590 h1         1 4CE       0.042333
     71 H72         -1.5320    -6.9830    -6.6530 h1         1 4CE       0.042333
     72 Cl1          4.2290     1.5780    -0.4080 cl         1 4CE       0.138000
     73 C40          3.9100     0.5910    -6.1120 c3         1 4CE       0.342000
     74 Cl2          9.7470     0.5200    -9.4860 cl         1 4CE       0.078000
@<TRIPOS>BOND
     1     1     8 1   
     2     1    22 1   
     3     1    44 1   
     4     2     3 1   
     5     2     8 1   
     6     2    45 1   
     7     3     4 1   
     8     3    46 1   
     9     4    22 1   
    10     4    23 1   
    11     5     6 1   
    12     5    22 1   
    13     5    25 1   
    14     6     7 1   
    15     6    47 1   
    16     7    23 1   
    17     7    24 1   
    18     8    20 1   
    19     9    32 1   
    20     9    33 1   
    21     9    48 1   
    22    10    27 1   
    23    10    28 1   
    24    10    49 1   
    25    11    12 1   
    26    11    16 1   
    27    11    41 1   
    28    12    13 1   
    29    12    50 1   
    30    12    51 1   
    31    13    14 1   
    32    13    52 1   
    33    13    53 1   
    34    14    15 1   
    35    14    43 1   
    36    15    16 1   
    37    15    54 1   
    38    15    55 1   
    39    16    56 1   
    40    16    57 1   
    41    17    18 1   
    42    17    21 1   
    43    17    26 1   
    44    18    19 1   
    45    18    58 1   
    46    19    20 1   
    47    19    72 1   
    48    20    21 1   
    49    23    59 1   
    50    25    60 1   
    51    26    39 1   
    52    26    40 1   
    53    26    61 1   
    54    27    31 1   
    55    27    62 1   
    56    28    29 1   
    57    28    74 1   
    58    29    30 1   
    59    29    63 1   
    60    30    31 1   
    61    30    36 1   
    62    30    64 1   
    63    31    32 1   
    64    32    35 1   
    65    33    34 1   
    66    34    35 1   
    67    36    37 1   
    68    36    64 1   
    69    37    65 1   
    70    37    73 1   
    71    38    73 1   
    72    39    66 1   
    73    39    73 1   
    74    40    41 1   
    75    40    67 1   
    76    40    68 1   
    77    41    42 1   
    78    43    69 1   
    79    43    70 1   
    80    43    71 1   
    81    65    73 1   
@<TRIPOS>SUBSTRUCTURE
     1 4CE         1 TEMP              0 ****  ****    0 ROOT
