@<TRIPOS>MOLECULE
molecule
   74    79     1     0     0
SMALL
bcc


@<TRIPOS>ATOM
      1 C13          0.0000     0.0000     0.0000 ca         1 4CE      -0.021000
      2 C17          2.0900     0.0000     1.2090 ca         1 4CE      -0.058000
      3 C16          1.4160     0.0000     2.4090 ca         1 4CE      -0.193000
      4 C15          0.0250     0.0020     2.4270 ca         1 4CE       0.106600
      5 C19         -2.1570     0.0030     1.2530 cc         1 4CE       0.218900
      6 C20         -2.7740     0.0040     2.4720 cd         1 4CE      -0.348200
      7 C21         -2.0100     0.0040     3.6490 c          1 4CE       0.713700
      8 C12          1.3880     0.0000     0.0000 ca         1 4CE      -0.150500
      9 C34          5.7180     5.9160    -8.4140 cd         1 4CE       0.413400
     10 C27          8.6550     2.9720    -9.8440 ca         1 4CE      -0.104000
     11 N1           1.9860    -4.2800    -6.3470 n          1 4CE      -0.492800
     12 C2           1.9060    -5.2250    -5.2230 c3         1 4CE       0.106000
     13 C3           0.6030    -6.0210    -5.3480 c3         1 4CE       0.144800
     14 N4           0.5340    -6.6330    -6.6820 n3         1 4CE      -0.733600
     15 C5           0.4900    -5.6110    -7.7360 c3         1 4CE       0.144800
     16 C6           1.7890    -4.7980    -7.7090 c3         1 4CE       0.106000
     17 C7           2.6420    -0.4140    -3.3460 cc         1 4CE       0.404800
     18 N8           3.6300     0.3640    -2.8340 na         1 4CE      -0.275900
     19 C9           3.3090     0.6270    -1.5320 cc         1 4CE      -0.117200
     20 C10          2.1290    -0.0020    -1.2860 cd         1 4CE       0.400800
     21 N11          1.7510    -0.6290    -2.4190 nd         1 4CE      -0.684000
     22 C14         -0.6890     0.0020     1.2140 ca         1 4CE      -0.140800
     23 N22         -0.6670     0.0020     3.6220 ns         1 4CE      -0.434100
     24 O23         -2.5810     0.0040     4.7260 o          1 4CE      -0.651500
     25 O24         -2.8810     0.0020     0.1090 oh         1 4CE      -0.491100
     26 C25          2.5820    -0.9380    -4.7570 c3         1 4CE       0.125400
     27 C26          7.6760     3.9330    -9.6820 ca         1 4CE      -0.120000
     28 C28          8.5110     1.7190    -9.2680 ca         1 4CE       0.034400
     29 C29          7.3890     1.4220    -8.5210 ca         1 4CE      -0.102000
     30 C30          6.3930     2.3870    -8.3460 ca         1 4CE      -0.041800
     31 C31          6.5400     3.6510    -8.9400 ca         1 4CE       0.020800
     32 N32          5.5490     4.6240    -8.7750 na         1 4CE      -0.013500
     33 N35          4.5330     6.4660    -8.3750 nc         1 4CE      -0.407000
     34 N36          3.6260     5.6120    -8.6870 nc         1 4CE       0.005000
     35 N37          4.1620     4.4690    -8.9510 nd         1 4CE      -0.198800
     36 C38          5.1950     2.0780    -7.5520 cf         1 4CE      -0.033200
     37 C39          5.1030     0.8990    -6.9020 ce         1 4CE      -0.234200
     38 O41          3.0010     1.3980    -6.0410 o          1 4CE      -0.589100
     39 N42          3.8170    -0.5850    -5.4620 ns         1 4CE      -0.581900
     40 C43          2.4280    -2.4610    -4.7290 c3         1 4CE      -0.166400
     41 C44          2.2280    -2.9700    -6.1330 c          1 4CE       0.657100
     42 O45          2.2860    -2.2030    -7.0710 o          1 4CE      -0.603100
     43 C46         -0.6150    -7.5440    -6.7840 c3         1 4CE       0.153100
     44 H56         -0.5450     0.0000    -0.9360 ha         1 4CE       0.169000
     45 H58          3.1730    -0.0000     1.2020 ha         1 4CE       0.144000
     46 H57          1.9690     0.0000     3.3410 ha         1 4CE       0.140000
     47 H59         -3.8560     0.0050     2.5300 ha         1 4CE       0.166000
     48 H66          6.6600     6.4040    -8.1960 h5         1 4CE       0.082100
     49 H64          9.5400     3.1980   -10.4270 ha         1 4CE       0.157000
     50 H48          1.9100    -4.6780    -4.2870 h1         1 4CE       0.062450
     51 H47          2.7510    -5.9030    -5.2580 h1         1 4CE       0.062450
     52 H50          0.5810    -6.7980    -4.5940 h1         1 4CE       0.044950
     53 H49         -0.2410    -5.3550    -5.2140 h1         1 4CE       0.044950
     54 H51         -0.3510    -4.9510    -7.5630 h1         1 4CE       0.044950
     55 H52          0.3870    -6.0930    -8.7010 h1         1 4CE       0.044950
     56 H54          1.7150    -3.9710    -8.4050 h1         1 4CE       0.062450
     57 H53          2.6230    -5.4360    -7.9790 h1         1 4CE       0.062450
     58 H55          4.4430     0.6870    -3.3210 hn         1 4CE       0.311700
     59 H60         -0.1580     0.0010     4.4840 hn         1 4CE       0.338500
     60 H61         -3.6590     0.5200     0.2300 ho         1 4CE       0.436000
     61 H62          1.7350    -0.4990    -5.2700 h1         1 4CE       0.128700
     62 H63          7.7950     4.9080   -10.1390 ha         1 4CE       0.151000
     63 H65          7.2820     0.4430    -8.0690 ha         1 4CE       0.158000
     64 H67          4.3870     2.7960    -7.4890 ha         1 4CE       0.185000
     65 H68          5.9110     0.1810    -6.9650 ha         1 4CE       0.127000
     66 H69          4.6040    -1.2030    -5.4330 hn         1 4CE       0.315500
     67 H71          3.3210    -2.9060    -4.3070 hc         1 4CE       0.081200
     68 H70          1.5700    -2.7260    -4.1230 hc         1 4CE       0.081200
     69 H73         -1.5320    -6.9840    -6.6510 h1         1 4CE       0.034700
     70 H74         -0.6170    -8.0150    -7.7600 h1         1 4CE       0.034700
     71 H72         -0.5420    -8.3040    -6.0160 h1         1 4CE       0.034700
     72 Cl1          4.2290     1.5780    -0.4080 cl         1 4CE      -0.049400
     73 C40          3.9100     0.5910    -6.1120 c          1 4CE       0.664300
     74 Cl2          9.7470     0.5200    -9.4860 cl         1 4CE      -0.087400
@<TRIPOS>BOND
     1    33     9 2
     2    33    34 1
     3     9    32 1
     4    43    14 1
     5    34    35 2
     6    13    14 1
     7    13    12 1
     8    32    35 1
     9    32    31 1
    10    14    15 1
    11    12    11 1
    12    27    31 ar
    13    27    10 ar
    14    72    19 1
    15    31    30 ar
    16    10    28 ar
    17    15    16 1
    18    18    19 1
    19    18    17 1
    20    40    41 1
    21    40    26 1
    22    11    16 1
    23    11    41 1
    24    19    20 2
    25    39    26 1
    26    39    73 1
    27    37    36 2
    28    37    73 1
    29    30    36 1
    30    30    29 ar
    31    28    29 ar
    32    28    74 1
    33    41    42 2
    34    26    17 1
    35    17    21 2
    36    73    38 2
    37    20    21 1
    38    20     8 1
    39    25     5 1
    40     1     8 ar
    41     1    22 ar
    42     8     2 ar
    43     5    22 1
    44     5     6 2
    45    22     4 ar
    46     2     3 ar
    47     6     7 1
    48     4     3 ar
    49     4    23 1
    50     7    23 1
    51     7    24 2
    52     1    44 1
    53     2    45 1
    54     3    46 1
    55     6    47 1
    56     9    48 1
    57    10    49 1
    58    12    50 1
    59    12    51 1
    60    13    52 1
    61    13    53 1
    62    15    54 1
    63    15    55 1
    64    16    56 1
    65    16    57 1
    66    18    58 1
    67    23    59 1
    68    25    60 1
    69    26    61 1
    70    27    62 1
    71    29    63 1
    72    36    64 1
    73    37    65 1
    74    39    66 1
    75    40    67 1
    76    40    68 1
    77    43    69 1
    78    43    70 1
    79    43    71 1
@<TRIPOS>SUBSTRUCTURE
     1 4CE         1 TEMP              0 ****  ****    0 ROOT
