@<TRIPOS>MOLECULE
molecule
   13    13     1     0     0
SMALL
bcc


@<TRIPOS>ATOM
      1 Cl9          0.0000     0.0000     0.0000 cl         1 4CH      -0.107400
      2 C4           1.7360     0.0000     0.0000 ca         1 4CH       0.019400
      3 C5           2.4260     0.0000     1.1990 ca         1 4CH      -0.109000
      4 C6           3.8080     0.0000     1.2010 ca         1 4CH      -0.145000
      5 C1           4.5020    -0.0010     0.0000 ca         1 4CH       0.107100
      6 O7           5.8620    -0.0010     0.0000 oh         1 4CH      -0.520100
      7 C2           3.8080    -0.0010    -1.2010 ca         1 4CH      -0.145000
      8 C3           2.4260    -0.0060    -1.1990 ca         1 4CH      -0.109000
      9 H5           1.8830     0.0010     2.1360 ha         1 4CH       0.147000
     10 H6           4.3490     0.0000     2.1400 ha         1 4CH       0.147000
     11 HO7          6.1770     0.8880    -0.0010 ho         1 4CH       0.421000
     12 H2           4.3490    -0.0030    -2.1400 ha         1 4CH       0.147000
     13 H3           1.8830    -0.0060    -2.1360 ha         1 4CH       0.147000
@<TRIPOS>BOND
     1     1     2 1
     2     2     3 ar
     3     2     8 ar
     4     3     4 ar
     5     4     5 ar
     6     5     6 1
     7     5     7 ar
     8     7     8 ar
     9     3     9 1
    10     4    10 1
    11     6    11 1
    12     7    12 1
    13     8    13 1
@<TRIPOS>SUBSTRUCTURE
     1 4CH         1 TEMP              0 ****  ****    0 ROOT
