@<TRIPOS>MOLECULE
4CH
   13    13     1     0     0
SMALL
bcc


@<TRIPOS>ATOM
      1 Cl9         0.0230   -0.0780    0.0290 cl        1 4CH     -0.095400
      2 C4          1.7220   -0.0050   -0.0150 ca        1 4CH     -0.019600
      3 C5          2.4400    0.1130    1.1780 ca        1 4CH     -0.087500
      4 C6          3.8310    0.1720    1.1450 ca        1 4CH     -0.178000
      5 C1          4.4940    0.1130   -0.0890 ca        1 4CH      0.126100
      6 O7          5.8640    0.1660   -0.2000 oh        1 4CH     -0.494100
      7 C2          3.7730   -0.0060   -1.2900 ca        1 4CH     -0.178000
      8 C3          2.3860   -0.0640   -1.2460 ca        1 4CH     -0.087500
      9 H5          1.9130    0.1590    2.1440 ha        1 4CH      0.149000
     10 H6          4.4030    0.2650    2.0790 ha        1 4CH      0.147500
     11 HO7         6.2330    0.2460    0.6910 ho        1 4CH      0.421000
     12 H2          4.3150   -0.0510   -2.2460 ha        1 4CH      0.147500
     13 H3          1.8120   -0.1570   -2.1810 ha        1 4CH      0.149000
@<TRIPOS>BOND
     1    1    2 1   
     2    2    3 ar  
     3    2    8 ar  
     4    3    4 ar  
     5    3    9 1   
     6    4    5 ar  
     7    4   10 1   
     8    5    6 1   
     9    5    7 ar  
    10    6   11 1   
    11    7    8 ar  
    12    7   12 1   
    13    8   13 1   
@<TRIPOS>SUBSTRUCTURE
     1 4CH         1 TEMP              0 ****  ****    0 ROOT
