@<TRIPOS>MOLECULE
4CK
   32    34     1     0     0
SMALL
bcc


@<TRIPOS>ATOM
      1 N1           0.0000     0.0000     0.0000 na         1 4CK       0.438400
      2 N2           1.4010     0.0000     0.0000 nc         1 4CK      -0.723800
      3 N3           3.1440     0.0000     1.6750 ns         1 4CK      -0.087400
      4 OAA          9.1440     0.0300     5.9320 o          1 4CK      -0.878300
      5 OAC          9.8850     0.0520     3.8410 o          1 4CK      -0.878300
      6 CAD          7.1830     0.0270     2.9290 ca         1 4CK      -0.088500
      7 CAE          6.4440     0.0040     5.2310 ca         1 4CK      -0.088500
      8 CAF          5.8710     0.0140     2.5080 ca         1 4CK      -0.091000
      9 CAG          5.1330     0.0030     4.8090 ca         1 4CK      -0.091000
     10 CAH          0.6770     0.0010     2.0770 cd         1 4CK      -0.319300
     11 CAI         -2.8700    -0.7680     0.9110 cx         1 4CK      -0.091400
     12 CAJ         -2.8690     0.7610     0.8930 cx         1 4CK      -0.091400
     13 CAO          3.4290     0.0020     2.9930 c          1 4CK       0.604700
     14 CAP          7.4780     0.0210     4.2940 ca         1 4CK      -0.067600
     15 CAQ          4.8370     0.0020     3.4450 ca         1 4CK      -0.207600
     16 CAR          1.8100     0.0000     1.2470 cd         1 4CK       0.365200
     17 CAS         -0.4180     0.0000     1.2840 cc         1 4CK      -0.221600
     18 CAT         -1.8510     0.0060     1.7500 cx         1 4CK       0.000600
     19 HN3          3.8850    -0.0360     1.0030 hn         1 4CK       0.182500
     20 HAD          7.9850     0.0380     2.2010 ha         1 4CK       0.129500
     21 HAE          6.6730     0.0020     6.2900 ha         1 4CK       0.129500
     22 HAF          5.6420     0.0160     1.4490 ha         1 4CK       0.096000
     23 HAG          4.3310    -0.0090     5.5370 ha         1 4CK       0.096000
     24 HAH          0.6800     0.0010     3.1600 ha         1 4CK       0.190000
     25 HAI         -3.6790    -1.2290     1.4650 hc         1 4CK       0.044200
     26 HAIA        -2.4770    -1.2460     0.0210 hc         1 4CK       0.044200
     27 HAJ         -2.4760     1.2180    -0.0070 hc         1 4CK       0.044200
     28 HAJA        -3.6780     1.2350     1.4370 hc         1 4CK       0.044200
     29 HAT         -2.0560     0.0180     2.8140 hc         1 4CK       0.069700
     30 HN1         -0.5880    -0.0000    -0.8100 hn         1 4CK       0.140700
     31 CAN          8.8870     0.0350     4.7460 c          1 4CK       0.968200
     32 OAB          2.5280     0.0010     3.8090 o          1 4CK      -0.660100
@<TRIPOS>BOND
     1     1     2 1   
     2     1    17 1   
     3     1    30 1   
     4     2    16 2   
     5     3    13 1   
     6     3    16 1   
     7     3    19 1   
     8     4    31 1   
     9     5    31 1   
    10     6     8 ar  
    11     6    14 ar  
    12     6    20 1   
    13     7     9 ar  
    14     7    14 ar  
    15     7    21 1   
    16     8    15 ar  
    17     8    22 1   
    18     9    15 ar  
    19     9    23 1   
    20    10    16 1   
    21    10    17 2   
    22    10    24 1   
    23    11    12 1   
    24    11    18 1   
    25    11    25 1   
    26    11    26 1   
    27    12    18 1   
    28    12    27 1   
    29    12    28 1   
    30    13    15 1   
    31    13    32 2   
    32    14    31 1   
    33    17    18 1   
    34    18    29 1   
@<TRIPOS>SUBSTRUCTURE
     1 4CK         1 TEMP              0 ****  ****    0 ROOT
