@<TRIPOS>MOLECULE
molecule
   14    14     1     0     0
SMALL
bcc


@<TRIPOS>ATOM
      1 Cl9          0.0000     0.0000     0.0000 cl         1 4CL      -0.102400
      2 C4           1.7360     0.0000     0.0000 ca         1 4CL       0.032400
      3 C5           2.4260     0.0000     1.1990 ca         1 4CL      -0.118000
      4 C6           3.8080    -0.0010     1.2030 ca         1 4CL      -0.144000
      5 C1           4.5060    -0.0020     0.0070 ca         1 4CL       0.093100
      6 O7           5.8660    -0.0020     0.0100 oh         1 4CL      -0.508100
      7 C2           3.8110    -0.0020    -1.2000 ca         1 4CL       0.101100
      8 C3           2.4270    -0.0060    -1.1990 ca         1 4CL      -0.151000
      9 O8           4.4920    -0.0010    -2.3770 oh         1 4CL      -0.506100
     10 H5           1.8820     0.0000     2.1350 ha         1 4CL       0.149000
     11 H6           4.3470    -0.0010     2.1440 ha         1 4CL       0.149000
     12 HO7          6.1790    -0.8590     0.2460 ho         1 4CL       0.425000
     13 H3           1.8840    -0.0060    -2.1370 ha         1 4CL       0.155000
     14 HO8          4.4120     0.8450    -2.7860 ho         1 4CL       0.425000
@<TRIPOS>BOND
     1     1     2 1   
     2     2     3 ar  
     3     2     8 ar  
     4     3     4 ar  
     5     3    10 1   
     6     4     5 ar  
     7     4    11 1   
     8     5     6 1   
     9     5     7 ar  
    10     6    12 1   
    11     7     8 ar  
    12     7     9 1   
    13     8    13 1   
    14     9    14 1   
@<TRIPOS>SUBSTRUCTURE
     1 4CL         1 TEMP              0 ****  ****    0 ROOT
