@<TRIPOS>MOLECULE
4CL
   14    14     1     0     0
SMALL
bcc


@<TRIPOS>ATOM
      1 CL9         0.0480    0.0880   -0.0500 cl        1 4CL     -0.090400
      2 C4          1.7480    0.1040   -0.0290 ca        1 4CL      0.020400
      3 C5          2.4270    0.1170    1.1900 ca        1 4CL     -0.119000
      4 C6          3.8220    0.1300    1.2050 ca        1 4CL     -0.179000
      5 C1          4.5390    0.1310    0.0050 ca        1 4CL      0.103100
      6 O7          5.9110    0.1430   -0.0540 oh        1 4CL     -0.471100
      7 C2          3.8430    0.1180   -1.2290 ca        1 4CL      0.111100
      8 C3          2.4460    0.1040   -1.2420 ca        1 4CL     -0.183000
      9 O8          4.6020    0.1190   -2.3740 oh        1 4CL     -0.471100
     10 H5          1.8710    0.1170    2.1390 ha        1 4CL      0.151000
     11 H6          4.3600    0.1410    2.1640 ha        1 4CL      0.142000
     12 HO7         6.2430    0.1520    0.8570 ho        1 4CL      0.417000
     13 H3          1.9040    0.0940   -2.1990 ha        1 4CL      0.151000
     14 HO8         3.9950    0.1090   -3.1290 ho        1 4CL      0.418000
@<TRIPOS>BOND
     1    1    2 1   
     2    2    3 ar  
     3    2    8 ar  
     4    3    4 ar  
     5    3   10 1   
     6    4    5 ar  
     7    4   11 1   
     8    5    6 1   
     9    5    7 ar  
    10    6   12 1   
    11    7    8 ar  
    12    7    9 1   
    13    8   13 1   
    14    9   14 1   
@<TRIPOS>SUBSTRUCTURE
     1 4CL         1 TEMP              0 ****  ****    0 ROOT
