@<TRIPOS>MOLECULE
4CM
   24    24     1     0     0
SMALL
bcc


@<TRIPOS>ATOM
      1 C1           0.0000     0.0000     0.0000 ca         1 4CM      -0.270900
      2 O1           3.7060     0.7410     3.7720 o          1 4CM      -0.604500
      3 C2           1.3950     0.0000     0.0000 ca         1 4CM      -0.114000
      4 O2           1.5010     0.6750     5.0000 o          1 4CM      -0.604500
      5 C3           2.0810     0.0000     1.1980 ca         1 4CM      -0.023000
      6 N1          -0.0560     0.0110    -2.4760 nz         1 4CM       0.187400
      7 N2          -2.0450     0.0050    -1.2790 n2         1 4CM      -0.569100
      8 C4           1.3890    -0.0110     2.3940 ca         1 4CM       0.018500
      9 C5           0.0060    -0.0110     2.4000 ca         1 4CM      -0.023000
     10 C6          -0.6930    -0.0050     1.2100 ca         1 4CM      -0.114000
     11 C7          -0.7430     0.0050    -1.2810 ce         1 4CM       0.242800
     12 P1           2.2990    -0.0180     3.9640 p5         1 4CM       0.394700
     13 C8           2.6030    -1.7400     4.4820 c3         1 4CM      -0.017300
     14 H2           1.9380     0.0060    -0.9370 ha         1 4CM       0.077500
     15 H3           3.1640    -0.0000     1.2000 ha         1 4CM       0.137500
     16 HN11        -0.7080    -0.0030    -3.2350 hn         1 4CM       0.215467
     17 HN12         0.5060     0.8370    -2.5340 hn         1 4CM       0.215467
     18 HN2         -2.5460     0.0010    -0.4130 hn         1 4CM       0.384400
     19 H5          -0.5310    -0.0170     3.3410 ha         1 4CM       0.137500
     20 H6          -1.7760    -0.0050     1.2160 ha         1 4CM       0.077500
     21 H81          1.6600    -2.2220     4.7060 hc         1 4CM       0.012033
     22 H82          3.1010    -2.2740     3.6820 hc         1 4CM       0.012033
     23 H83          3.2310    -1.7450     5.3650 hc         1 4CM       0.012033
     24 H13          0.5340    -0.7960    -2.5260 hn         1 4CM       0.215467
@<TRIPOS>BOND
     1     1     3 ar  
     2     1    10 ar  
     3     1    11 1   
     4     2    12 1   
     5     3     5 ar  
     6     3    14 1   
     7     4    12 1   
     8     5     8 ar  
     9     5    15 1   
    10     6    11 1   
    11     6    16 1   
    12     6    17 1   
    13     6    24 1   
    14     7    11 2   
    15     7    18 1   
    16     8     9 ar  
    17     8    12 1   
    18     9    10 ar  
    19     9    19 1   
    20    10    20 1   
    21    12    13 1   
    22    13    21 1   
    23    13    22 1   
    24    13    23 1   
@<TRIPOS>SUBSTRUCTURE
     1 4CM         1 TEMP              0 ****  ****    0 ROOT
