@<TRIPOS>MOLECULE
4CN
   29    31     1     0     0
SMALL
bcc


@<TRIPOS>ATOM
      1 CAA          0.0000     0.0000     0.0000 c3         1 4CN      -0.001400
      2 CAL          1.5070     0.0000     0.0000 cc         1 4CN       0.438700
      3 NAI          2.2400     0.0000     1.0590 nd         1 4CN      -0.561000
      4 SAJ          2.4820    -0.0060    -1.4040 ss         1 4CN      -0.305300
      5 CAF          3.9370    -0.0010    -0.4100 cc         1 4CN      -0.124400
      6 CAO          3.5540    -0.0050     0.8830 cd         1 4CN       0.401800
      7 CAM          4.5190    -0.0050     2.0100 ca         1 4CN      -0.153500
      8 CAG          4.0600    -0.0010     3.3280 ca         1 4CN      -0.014000
      9 CAN          4.9620    -0.0010     4.3640 ca         1 4CN      -0.155300
     10 CAH          4.7970     0.0030     5.8670 c3         1 4CN      -0.047100
     11 CAK          6.2160    -0.0010     6.3940 c          1 4CN       0.621500
     12 OAC          6.5520     0.0000     7.5600 o          1 4CN      -0.650500
     13 NAQ          7.0330    -0.0060     5.3280 n          1 4CN       0.018000
     14 CAB          8.4960    -0.0120     5.4210 c3         1 4CN       0.069300
     15 CAP          6.3300    -0.0060     4.1220 ca         1 4CN      -0.079400
     16 CAE          6.7870    -0.0110     2.8040 ca         1 4CN      -0.122000
     17 CAD          5.8910    -0.0150     1.7590 ca         1 4CN      -0.063000
     18 H1          -0.3610    -0.9490     0.3770 hc         1 4CN       0.018700
     19 H2          -0.3610     0.8010     0.6340 hc         1 4CN       0.018700
     20 H3          -0.3610     0.1480    -1.0110 hc         1 4CN       0.018700
     21 H4           4.9580    -0.0030    -0.7730 h4         1 4CN       0.164000
     22 H5           3.0000     0.0910     3.5320 ha         1 4CN       0.125000
     23 H6           4.2710    -0.8870     6.1920 hc         1 4CN       0.054200
     24 H7           4.2770     0.8980     6.1880 hc         1 4CN       0.054200
     25 H8           8.7910    -0.0100     6.4630 h1         1 4CN       0.019033
     26 H9           8.8920     0.8700     4.9320 h1         1 4CN       0.019033
     27 H10          8.8850    -0.8990     4.9370 h1         1 4CN       0.019033
     28 H11          7.8520    -0.0190     2.6020 ha         1 4CN       0.109000
     29 H12          6.2520    -0.0270     0.7380 ha         1 4CN       0.108000
@<TRIPOS>BOND
     1     1     2 1   
     2     1    18 1   
     3     1    19 1   
     4     1    20 1   
     5     2     3 2   
     6     2     4 1   
     7     3     6 1   
     8     4     5 1   
     9     5     6 2   
    10     5    21 1   
    11     6     7 1   
    12     7     8 ar  
    13     7    17 ar  
    14     8     9 ar  
    15     8    22 1   
    16     9    10 1   
    17     9    15 ar  
    18    10    11 1   
    19    10    23 1   
    20    10    24 1   
    21    11    12 2   
    22    11    13 1   
    23    13    14 1   
    24    13    15 1   
    25    14    25 1   
    26    14    26 1   
    27    14    27 1   
    28    15    16 ar  
    29    16    17 ar  
    30    16    28 1   
    31    17    29 1   
@<TRIPOS>SUBSTRUCTURE
     1 4CN         1 TEMP              0 ****  ****    0 ROOT
