@<TRIPOS>MOLECULE
molecule
   49    50     1     0     0
SMALL
bcc


@<TRIPOS>ATOM
      1 C1           0.0000     0.0000     0.0000 ca         1 4CP       0.031400
      2 C2           1.3850     0.0000     0.0000 ca         1 4CP      -0.100000
      3 C3           2.0760     0.0000     1.1950 ca         1 4CP      -0.122000
      4 C4           1.3820    -0.0010     2.3990 ca         1 4CP       0.001900
      5 C5          -0.0080    -0.0070     2.3950 ca         1 4CP      -0.122000
      6 C6          -0.6940    -0.0010     1.1980 ca         1 4CP      -0.100000
      7 Cl7         -0.8660     0.0000    -1.5040 cl         1 4CP      -0.076400
      8 S8           2.2610    -0.0010     3.9260 ss         1 4CP      -0.140000
      9 C9           0.8700    -0.0030     5.0900 c3         1 4CP      -0.107300
     10 C10          1.3980    -0.0030     6.5020 c          1 4CP       0.681100
     11 O11          2.5930    -0.0030     6.7030 o          1 4CP      -0.566100
     12 N12          0.5400    -0.0050     7.5410 ns         1 4CP      -0.571900
     13 C13          1.0520    -0.0060     8.9140 c3         1 4CP       0.051700
     14 C14          0.0050     0.6030     9.8490 c3         1 4CP      -0.050100
     15 C15         -0.1970     2.0550     9.5000 ca         1 4CP      -0.100300
     16 C16         -1.1560     2.4140     8.5710 ca         1 4CP      -0.088000
     17 C17         -1.3430     3.7440     8.2480 ca         1 4CP      -0.114000
     18 C18         -0.5690     4.7200     8.8590 ca         1 4CP       0.147600
     19 C19          0.3970     4.3560     9.7890 ca         1 4CP      -0.114000
     20 C20          0.5770     3.0250    10.1100 ca         1 4CP      -0.088000
     21 N21         -0.7560     6.0680     8.5340 nu         1 4CP      -0.716600
     22 C22         -0.5710     7.0390     9.4920 c2         1 4CP       0.692100
     23 N23         -0.3290     6.6990    10.7270 n2         1 4CP      -0.768100
     24 N24         -0.6420     8.3680     9.1470 nz         1 4CP      -0.806600
     25 C25          1.3450    -1.4210     9.3410 c          1 4CP       0.451100
     26 O26          1.1450    -2.3390     8.5730 o          1 4CP      -0.368100
     27 N27          1.8290    -1.6670    10.5740 nz         1 4CP      -0.683400
     28 H2           1.9260     0.0010    -0.9390 ha         1 4CP       0.155500
     29 H3           3.1600     0.0020     1.1940 ha         1 4CP       0.135000
     30 H5          -0.5520    -0.0080     3.3320 ha         1 4CP       0.135000
     31 H6          -1.7770    -0.0040     1.1950 ha         1 4CP       0.155500
     32 H9C1         0.2660    -0.8880     4.9300 h1         1 4CP       0.091200
     33 H9C2         0.2650     0.8810     4.9300 h1         1 4CP       0.091200
     34 H12         -0.4450    -0.0620     7.3760 hn         1 4CP       0.339500
     35 H13          1.9620     0.5810     8.9610 h1         1 4CP       0.125700
     36 H141         0.3460     0.5220    10.8740 hc         1 4CP       0.063700
     37 H142        -0.9320     0.0710     9.7370 hc         1 4CP       0.063700
     38 H16         -1.7600     1.6510     8.0940 ha         1 4CP       0.144000
     39 H17         -2.0960     4.0250     7.5210 ha         1 4CP       0.158500
     40 H19          1.0040     5.1160    10.2670 ha         1 4CP       0.158500
     41 H20          1.3300     2.7400    10.8350 ha         1 4CP       0.144000
     42 H21         -0.9930     6.3280     7.5980 hn         1 4CP       0.471800
     43 H23         -0.1950     7.4050    11.4240 hn         1 4CP       0.448400
     44 H241        -0.8430     8.9140     9.9610 hn         1 4CP       0.475133
     45 H242         0.2330     8.6590     8.7580 hn         1 4CP       0.475133
     46 H271         2.3050    -2.5470    10.5760 hn         1 4CP       0.480133
     47 H272         2.4680    -0.9420    10.8320 hn         1 4CP       0.480133
     48 H243        -1.3490     8.4950     8.4500 hn         1 4CP       0.475133
     49 H273         1.0730    -1.6980    11.2290 hn         1 4CP       0.480133
@<TRIPOS>BOND
     1     1     2 ar  
     2     1     6 ar  
     3     1     7 1   
     4     2     3 ar  
     5     2    28 1   
     6     3     4 ar  
     7     3    29 1   
     8     4     5 ar  
     9     4     8 1   
    10     5     6 ar  
    11     5    30 1   
    12     6    31 1   
    13     8     9 1   
    14     9    10 1   
    15     9    32 1   
    16     9    33 1   
    17    10    11 2   
    18    10    12 1   
    19    12    13 1   
    20    12    34 1   
    21    13    14 1   
    22    13    25 1   
    23    13    35 1   
    24    14    15 1   
    25    14    36 1   
    26    14    37 1   
    27    15    16 ar  
    28    15    20 ar  
    29    16    17 ar  
    30    16    38 1   
    31    17    18 ar  
    32    17    39 1   
    33    18    19 ar  
    34    18    21 1   
    35    19    20 ar  
    36    19    40 1   
    37    20    41 1   
    38    21    22 1   
    39    21    42 1   
    40    22    23 2   
    41    22    24 1   
    42    23    43 1   
    43    24    44 1   
    44    24    45 1   
    45    25    26 2   
    46    25    27 1   
    47    27    46 1   
    48    27    47 1   
    49    48    24 1   
    50    49    27 1   
@<TRIPOS>SUBSTRUCTURE
     1 4CP         1 TEMP              0 ****  ****    0 ROOT
