@<TRIPOS>MOLECULE
4CR
   44    46     1     0     0
SMALL
bcc


@<TRIPOS>ATOM
      1 O4A          0.0000     0.0000     0.0000 o          1 4CR      -0.454000
      2 C4A          1.2150     0.0000     0.0000 c2         1 4CR       0.352000
      3 N4           1.8880     0.0000     1.1680 n          1 4CR       0.022000
      4 C4B          1.1550    -0.0020     2.4370 c3         1 4CR      -0.056000
      5 C4C          0.8990     1.4400     2.8790 c3         1 4CR      -0.135000
      6 CN4          3.3530     0.0010     1.1680 c3         1 4CR      -0.077000
      7 O4           1.8890     0.0020    -1.1660 os         1 4CR      -0.180000
      8 C4           1.2170    -0.1450    -2.3380 ca         1 4CR       0.140000
      9 C3           1.8910    -0.0010    -3.5450 ca         1 4CR      -0.102000
     10 C2           3.3460     0.3020    -3.8270 c3         1 4CR      -0.029000
     11 C1           3.5680    -0.1050    -5.2990 c3         1 4CR      -0.118000
     12 C5          -0.1380    -0.4350    -2.3290 ca         1 4CR      -0.174000
     13 C6          -0.8190    -0.5840    -3.5210 ca         1 4CR      -0.050000
     14 C7          -0.1480    -0.4450    -4.7210 ca         1 4CR      -0.108000
     15 C8           1.2070    -0.1560    -4.7360 ca         1 4CR      -0.155000
     16 C9           2.1540     0.0410    -5.9000 c3         1 4CR      -0.063000
     17 N10          1.9260    -0.9830    -6.9220 n3         1 4CR       0.511000
     18 C10          2.0560    -2.4020    -6.5790 c3         1 4CR      -0.238000
     19 C11          1.6070    -0.6350    -8.1290 c2         1 4CR      -0.346000
     20 C12          1.3230    -1.6620    -9.1390 c3         1 4CR      -0.333000
     21 C13          1.0800    -1.3070   -10.3980 c2         1 4CR       0.228000
     22 H4B1         1.7410    -0.5120     3.1910 h1         1 4CR       0.077000
     23 H4B2         0.2090    -0.5130     2.3070 h1         1 4CR       0.077000
     24 H4C1        -0.1490     1.5620     3.1230 hc         1 4CR       0.053667
     25 H4C2         1.1640     2.1170     2.0760 hc         1 4CR       0.053667
     26 H4C3         1.5010     1.6620     3.7520 hc         1 4CR       0.053667
     27 HN41         3.7140     0.8580     0.6130 h1         1 4CR       0.054667
     28 HN42         3.7150    -0.9090     0.7040 h1         1 4CR       0.054667
     29 HN43         3.7140     0.0540     2.1880 h1         1 4CR       0.054667
     30 H2C1         3.5400     1.3610    -3.6990 hc         1 4CR       0.079500
     31 H2C2         3.9840    -0.2840    -3.1770 hc         1 4CR       0.079500
     32 H1C1         4.2490     0.5880    -5.7780 hc         1 4CR       0.075000
     33 H1C2         3.8910    -1.1370    -5.3550 hc         1 4CR       0.075000
     34 H5          -0.6630    -0.5430    -1.3870 ha         1 4CR       0.220000
     35 H6          -1.8780    -0.8100    -3.5160 ha         1 4CR       0.120000
     36 H7          -0.6840    -0.5620    -5.6550 ha         1 4CR       0.099000
     37 H9           2.0270     1.0320    -6.3190 h1         1 4CR       0.138000
     38 H101         2.8590    -2.8410    -7.1600 h1         1 4CR       0.107000
     39 H102         1.1280    -2.9140    -6.8020 h1         1 4CR       0.107000
     40 H103         2.2790    -2.4990    -5.5240 h1         1 4CR       0.107000
     41 H11          2.3810    -1.1700    -8.6650 DU         1 4CR       0.332000
     42 H12          1.3120    -2.7080    -8.8590 hc         1 4CR       0.136000
     43 H131         1.0920    -0.2610   -10.6790 ha         1 4CR       0.106500
     44 H132         0.8710    -2.0650   -11.1440 ha         1 4CR       0.106500
@<TRIPOS>BOND
     1     1     2 1   
     2     2     3 1   
     3     2     7 1   
     4     3     4 1   
     5     3     6 1   
     6     4     5 1   
     7     4    22 1   
     8     4    23 1   
     9     5    24 1   
    10     5    25 1   
    11     5    26 1   
    12     6    27 1   
    13     6    28 1   
    14     6    29 1   
    15     7     8 1   
    16     8     9 1   
    17     8    12 1   
    18     9    10 1   
    19     9    15 1   
    20    10    11 1   
    21    10    30 1   
    22    10    31 1   
    23    11    16 1   
    24    11    32 1   
    25    11    33 1   
    26    12    13 1   
    27    12    34 1   
    28    13    14 1   
    29    13    35 1   
    30    14    15 1   
    31    14    36 1   
    32    15    16 1   
    33    16    17 1   
    34    16    37 1   
    35    17    18 1   
    36    17    19 1   
    37    18    38 1   
    38    18    39 1   
    39    18    40 1   
    40    19    20 1   
    41    19    41 1   
    42    20    21 1   
    43    20    41 1   
    44    20    42 1   
    45    21    43 1   
    46    21    44 1   
@<TRIPOS>SUBSTRUCTURE
     1 4CR         1 TEMP              0 ****  ****    0 ROOT
