@<TRIPOS>MOLECULE
molecule
   44    45     1     0     0
SMALL
bcc


@<TRIPOS>ATOM
      1 O4A          0.0000     0.0000     0.0000 o          1 4CR      -0.599000
      2 C4A          1.2150     0.0000     0.0000 c          1 4CR       0.762100
      3 N4           1.8880     0.0000     1.1680 n          1 4CR      -0.463800
      4 C4B          1.1550    -0.0020     2.4370 c3         1 4CR       0.122000
      5 C4C          0.8990     1.4400     2.8790 c3         1 4CR      -0.118100
      6 CN4          3.3530     0.0010     1.1680 c3         1 4CR       0.092300
      7 O4           1.8890     0.0020    -1.1660 os         1 4CR      -0.342200
      8 C4           1.2170    -0.1450    -2.3380 ca         1 4CR       0.167100
      9 C3           1.8910    -0.0010    -3.5450 ca         1 4CR      -0.089300
     10 C2           3.3460     0.3020    -3.8270 c3         1 4CR      -0.026100
     11 C1           3.5680    -0.1050    -5.2990 c3         1 4CR      -0.091400
     12 C5          -0.1380    -0.4350    -2.3290 ca         1 4CR      -0.159000
     13 C6          -0.8190    -0.5840    -3.5210 ca         1 4CR      -0.094000
     14 C7          -0.1480    -0.4450    -4.7210 ca         1 4CR      -0.129000
     15 C8           1.2070    -0.1560    -4.7360 ca         1 4CR      -0.149300
     16 C9           2.1540     0.0410    -5.9000 c3         1 4CR       0.050300
     17 N10          1.9260    -0.9830    -6.9220 nh         1 4CR      -0.080100
     18 C10          2.0560    -2.4020    -6.5790 c3         1 4CR      -0.024400
     19 C11          1.6070    -0.6350    -8.1290 ce         1 4CR       0.397500
     20 C12          1.3230    -1.6620    -9.1390 ce         1 4CR      -0.357600
     21 C13          1.0800    -1.3070   -10.3980 c2         1 4CR      -0.031000
     22 H4B1         1.7410    -0.5120     3.1910 h1         1 4CR       0.068200
     23 H4B2         0.2090    -0.5130     2.3060 h1         1 4CR       0.068200
     24 H4C1         1.8370     1.9810     2.9090 hc         1 4CR       0.049033
     25 H4C2         0.4500     1.4410     3.8650 hc         1 4CR       0.049033
     26 H4C3         0.2280     1.9200     2.1760 hc         1 4CR       0.049033
     27 HN41         3.7140    -0.0140     2.1890 h1         1 4CR       0.048033
     28 HN42         3.7140     0.8930     0.6700 h1         1 4CR       0.048033
     29 HN43         3.7150    -0.8760     0.6450 h1         1 4CR       0.048033
     30 H2C1         3.9840    -0.2840    -3.1770 hc         1 4CR       0.079200
     31 H2C2         3.5400     1.3610    -3.6990 hc         1 4CR       0.079200
     32 H1C1         3.8910    -1.1370    -5.3550 hc         1 4CR       0.072200
     33 H1C2         4.2490     0.5890    -5.7780 hc         1 4CR       0.072200
     34 H5          -0.6630    -0.5430    -1.3870 ha         1 4CR       0.234000
     35 H6          -1.8780    -0.8100    -3.5160 ha         1 4CR       0.156000
     36 H7          -0.6840    -0.5620    -5.6550 ha         1 4CR       0.122000
     37 H9           2.0270     1.0320    -6.3190 h1         1 4CR       0.101700
     38 H101         2.2800    -2.4990    -5.5240 h1         1 4CR       0.093367
     39 H102         1.1270    -2.9140    -6.8000 h1         1 4CR       0.093367
     40 H103         2.8580    -2.8410    -7.1610 h1         1 4CR       0.093367
     41 H11          1.5090     0.4140    -8.3810 h4         1 4CR       0.063800
     42 H12          1.3120    -2.7080    -8.8590 ha         1 4CR       0.170000
     43 H131         0.8710    -2.0650   -11.1440 ha         1 4CR       0.151000
     44 H132         1.0920    -0.2610   -10.6790 ha         1 4CR       0.151000
@<TRIPOS>BOND
     1     1     2 2
     2     2     3 1
     3     2     7 1
     4     3     4 1
     5     3     6 1
     6     4     5 1
     7     4    22 1
     8     4    23 1
     9     5    24 1
    10     5    25 1
    11     5    26 1
    12     6    27 1
    13     6    28 1
    14     6    29 1
    15     7     8 1
    16     8     9 ar
    17     8    12 ar
    18     9    10 1
    19     9    15 ar
    20    10    11 1
    21    10    30 1
    22    10    31 1
    23    11    16 1
    24    11    32 1
    25    11    33 1
    26    12    13 ar
    27    12    34 1
    28    13    14 ar
    29    13    35 1
    30    14    15 ar
    31    14    36 1
    32    15    16 1
    33    16    17 1
    34    16    37 1
    35    17    18 1
    36    17    19 2
    37    18    38 1
    38    18    39 1
    39    18    40 1
    40    19    20 1
    41    19    41 1
    42    20    21 2
    43    20    42 1
    44    21    43 1
    45    21    44 1
@<TRIPOS>SUBSTRUCTURE
     1 4CR         1 TEMP              0 ****  ****    0 ROOT
