@<TRIPOS>MOLECULE
4CS
   19    19     1     0     0
SMALL
bcc


@<TRIPOS>ATOM
      1 O            0.0000     0.0000     0.0000 o          1 4CS      -0.891300
      2 C            1.2090     0.0000     0.0000 c          1 4CS       0.988600
      3 OXT          1.8810     0.0050    -1.1620 o          1 4CS      -0.891300
      4 CA           1.9620     0.0000     1.3050 c3         1 4CS       0.023500
      5 CB           2.4320    -1.4230     1.6170 c3         1 4CS      -0.067400
      6 CAD          2.9550    -1.4540     3.0620 c3         1 4CS       0.146800
      7 NAG          1.8490    -1.0400     3.9370 nu         1 4CS      -0.567200
      8 CAI          1.0600     0.0110     3.5500 c2         1 4CS       0.398200
      9 CAA          0.1220     0.6220     4.5590 c3         1 4CS      -0.013400
     10 N            1.0900     0.4940     2.3640 n2         1 4CS      -0.535900
     11 HA           2.8250     0.6490     1.2250 h1         1 4CS       0.028700
     12 HB1          1.5450    -2.0450     1.6030 hc         1 4CS       0.039700
     13 HB2          3.2890    -1.6050     0.9800 hc         1 4CS       0.039700
     14 HAD1         3.1550    -2.4940     3.2920 h1         1 4CS       0.012700
     15 HAD2         3.7080    -0.6790     3.1320 h1         1 4CS       0.012700
     16 HNAG         1.6750    -1.5170     4.8000 hn         1 4CS       0.272800
     17 HAA1        -0.6930    -0.0640     4.7570 hc         1 4CS       0.000700
     18 HAA2         0.6590     0.8200     5.4790 hc         1 4CS       0.000700
     19 HAA3        -0.2750     1.5510     4.1670 hc         1 4CS       0.000700
@<TRIPOS>BOND
     1     1     2 1   
     2     2     3 1   
     3     2     4 1   
     4     4     5 1   
     5     4    10 1   
     6     4    11 1   
     7     5     6 1   
     8     5    12 1   
     9     5    13 1   
    10     6     7 1   
    11     6    14 1   
    12     6    15 1   
    13     7     8 1   
    14     7    16 1   
    15     8     9 1   
    16     8    10 2   
    17     9    17 1   
    18     9    18 1   
    19     9    19 1   
@<TRIPOS>SUBSTRUCTURE
     1 4CS         1 TEMP              0 ****  ****    0 ROOT
