@<TRIPOS>MOLECULE
4CT
   46    49     1     0     0
SMALL
bcc


@<TRIPOS>ATOM
      1 N1           0.0000     0.0000     0.0000 nb         1 4CT      -0.626000
      2 Cl1         12.2020     2.4850    10.0030 cl         1 4CT      -0.024400
      3 C2           1.3210     0.0000     0.0000 ca         1 4CT       0.592900
      4 N3           2.0250     0.0000     1.1100 nb         1 4CT      -0.558000
      5 C4           1.4150     0.0000     2.2980 ca         1 4CT       0.419100
      6 C5           0.0090     0.0010     2.3460 ca         1 4CT      -0.475800
      7 C6          -0.6910     0.0010     1.1340 ca         1 4CT       0.533200
      8 N6          -2.0770     0.0020     1.1200 nv         1 4CT      -0.658500
      9 N7          -0.3560     0.0020     3.6720 na         1 4CT       0.393600
     10 C8           0.7600     0.0010     4.4570 cc         1 4CT      -0.265100
     11 C9           1.8640    -0.0000     3.6860 cd         1 4CT      -0.258000
     12 C1'          5.3010     1.3630     4.3280 c3         1 4CT       0.146800
     13 N1'          3.8350     1.3610     4.0940 n3         1 4CT      -0.514600
     14 C10          3.2910    -0.0020     4.1660 c3         1 4CT       0.250000
     15 C11         11.1120     2.4110     8.6540 ca         1 4CT      -0.040600
     16 C13         11.5640     1.9620     7.4250 ca         1 4CT      -0.084500
     17 C14         10.6990     1.9020     6.3500 ca         1 4CT      -0.091500
     18 C2'          3.2890     2.2100     5.1850 c3         1 4CT       0.117800
     19 C3'          4.3010     3.3670     5.3200 c3         1 4CT       0.190100
     20 O3'          3.8700     4.4950     4.5540 oh         1 4CT      -0.564800
     21 C4'          5.6250     2.8110     4.7560 c3         1 4CT      -0.050700
     22 C5'          6.7070     2.8160     5.8380 c3         1 4CT       0.080700
     23 S6'          8.2670     2.2160     5.1350 ss         1 4CT      -0.322000
     24 C7'          9.3740     2.2920     6.5040 ca         1 4CT       0.058900
     25 C8'          8.9240     2.7420     7.7390 ca         1 4CT      -0.091500
     26 C9'          9.7920     2.7940     8.8110 ca         1 4CT      -0.084500
     27 H2           1.8430    -0.0010    -0.9490 h5         1 4CT      -0.001900
     28 HN6         -2.5780    -0.8640     1.0950 hn         1 4CT       0.276300
     29 HN6A        -2.5770     0.8690     1.0950 hn         1 4CT       0.276300
     30 HN7         -1.2980     0.0020     4.0100 hn         1 4CT       0.116700
     31 H8           0.7570    -0.0010     5.5400 h4         1 4CT       0.142000
     32 H1'A         5.5560     0.6700     5.1210 h1         1 4CT       0.025200
     33 H10          3.8820    -0.6600     3.5400 h1         1 4CT       0.013200
     34 H10A         3.3280    -0.3510     5.1910 h1         1 4CT       0.013200
     35 H13         12.5970     1.6590     7.3060 ha         1 4CT       0.115500
     36 H14         11.0530     1.5510     5.3890 ha         1 4CT       0.118500
     37 H2'          3.2360     1.6470     6.1090 h1         1 4CT       0.020200
     38 H2'A         2.3130     2.5930     4.9110 h1         1 4CT       0.020200
     39 H3'          4.4230     3.6380     6.3620 h1         1 4CT      -0.001300
     40 HO3'         3.5870     5.1800     5.1360 ho         1 4CT       0.383000
     41 H4'          5.9400     3.3920     3.8980 hc         1 4CT       0.072700
     42 H5'          6.8420     3.8250     6.2080 h1         1 4CT       0.040200
     43 H5'A         6.4060     2.1700     6.6530 h1         1 4CT       0.040200
     44 H8'          7.8910     3.0450     7.8620 ha         1 4CT       0.118500
     45 H9'          9.4420     3.1450     9.7740 ha         1 4CT       0.115500
     46 H1'          5.8290     1.1140     3.4160 h1         1 4CT       0.025200
@<TRIPOS>BOND
     1     1     3 ar  
     2     1     7 ar  
     3     2    15 1   
     4     3     4 ar  
     5     3    27 1   
     6     4     5 ar  
     7     5     6 ar  
     8     5    11 1   
     9     6     7 ar  
    10     6     9 1   
    11     7     8 1   
    12     8    28 1   
    13     8    29 1   
    14     9    10 1   
    15     9    30 1   
    16    10    11 2   
    17    10    31 1   
    18    11    14 1   
    19    12    13 1   
    20    12    21 1   
    21    12    32 1   
    22    12    46 1   
    23    13    14 1   
    24    13    18 1   
    25    14    33 1   
    26    14    34 1   
    27    15    16 ar  
    28    15    26 ar  
    29    16    17 ar  
    30    16    35 1   
    31    17    24 ar  
    32    17    36 1   
    33    18    19 1   
    34    18    37 1   
    35    18    38 1   
    36    19    20 1   
    37    19    21 1   
    38    19    39 1   
    39    20    40 1   
    40    21    22 1   
    41    21    41 1   
    42    22    23 1   
    43    22    42 1   
    44    22    43 1   
    45    23    24 1   
    46    24    25 ar  
    47    25    26 ar  
    48    25    44 1   
    49    26    45 1   
@<TRIPOS>SUBSTRUCTURE
     1 4CT         1 TEMP              0 ****  ****    0 ROOT
