@<TRIPOS>MOLECULE
molecule
   46    47     1     0     0
SMALL
bcc


@<TRIPOS>ATOM
      1 C12          0.0000     0.0000     0.0000 cp         1 4CU      -0.057000
      2 C11          1.3870     0.0000     0.0000 ca         1 4CU      -0.102000
      3 C14         -0.6580    -1.0840    -2.1450 ca         1 4CU      -0.074000
      4 C15         -1.3570    -1.0760    -3.3360 ca         1 4CU      -0.128300
      5 C17         -0.1230    -2.0510    -5.2290 c2         1 4CU      -0.163200
      6 C20         -2.2340     1.0980    -2.8270 ca         1 4CU      -0.230000
      7 C21         -1.5340     1.1060    -1.6320 ca         1 4CU       0.165100
      8 O22         -1.6140     2.1780    -0.8010 os         1 4CU      -0.303900
      9 O01         -2.0540     0.0000     1.2180 oh         1 4CU      -0.509100
     10 C02         -0.6970     0.0000     1.2160 ca         1 4CU       0.108100
     11 C03         -0.0030     0.0010     2.4170 ca         1 4CU      -0.199000
     12 C04          1.3750     0.0000     2.4220 ca         1 4CU      -0.109000
     13 C05          2.0820     0.0000     1.2130 ca         1 4CU      -0.039800
     14 C06          3.5520    -0.0010     1.2210 ce         1 4CU      -0.174200
     15 C07          4.2220     0.0000     2.3940 cf         1 4CU      -0.136200
     16 C08          5.6390    -0.0010     2.4010 c          1 4CU       0.859800
     17 O09          6.2530    -0.0020     1.3500 o          1 4CU      -0.842300
     18 O10          6.3080    -0.0000     3.5730 o          1 4CU      -0.842300
     19 C13         -0.7430     0.0060    -1.2830 cp         1 4CU      -0.038000
     20 C18          0.8180    -2.9560    -5.3330 c2         1 4CU      -0.226000
     21 C19         -2.1420     0.0110    -3.6760 ca         1 4CU      -0.096000
     22 C23         -2.4400     3.2650    -1.2240 c3         1 4CU       0.139400
     23 C24         -2.4060     4.3710    -0.1690 c3         1 4CU      -0.084400
     24 C25         -3.2910     5.5350    -0.6210 c3         1 4CU      -0.091100
     25 H111         1.9790     0.0570    -0.9060 ha         1 4CU       0.142000
     26 H141        -0.0970    -1.9640    -1.8530 ha         1 4CU       0.143000
     27 H171        -0.0740    -1.1480    -5.8260 ha         1 4CU       0.123000
     28 H201        -2.8500     1.9460    -3.0990 ha         1 4CU       0.127000
     29 H011        -2.3670    -0.6080     1.8660 ho         1 4CU       0.405000
     30 H031        -0.5460     0.0020     3.3540 ha         1 4CU       0.120000
     31 H041         1.9120     0.0000     3.3620 ha         1 4CU       0.146000
     32 H061         4.0980    -0.0030     0.2860 ha         1 4CU       0.153000
     33 H071         3.6760     0.0010     3.3290 ha         1 4CU       0.103000
     34 H161        -1.0960    -3.1590    -3.6940 hc         1 4CU       0.047200
     35 H162        -2.1910    -2.3510    -4.8240 hc         1 4CU       0.047200
     36 H182         1.6440    -2.8030    -6.0160 ha         1 4CU       0.110500
     37 H181         0.7690    -3.8590    -4.7360 ha         1 4CU       0.110500
     38 H191        -2.6900     0.0090    -4.6110 ha         1 4CU       0.119000
     39 H232        -2.0720     3.6530    -2.1660 h1         1 4CU       0.028700
     40 H231        -3.4580     2.9170    -1.3500 h1         1 4CU       0.028700
     41 H241        -2.7740     3.9830     0.7730 hc         1 4CU       0.059700
     42 H242        -1.3880     4.7190    -0.0430 hc         1 4CU       0.059700
     43 H252        -2.9230     5.9240    -1.5620 hc         1 4CU       0.032033
     44 H251        -3.2680     6.3190     0.1270 hc         1 4CU       0.032033
     45 H253        -4.3090     5.1870    -0.7470 hc         1 4CU       0.032033
     46 C16         -1.2650    -2.2560    -4.2690 c3         1 4CU       0.004100
@<TRIPOS>BOND
     1    20     5 2   
     2     5    46 1   
     3    46     4 1   
     4     4    21 ar  
     5     4     3 ar  
     6    21     6 ar  
     7     3    19 ar  
     8     6     7 ar  
     9    19     7 ar  
    10    19     1 1   
    11     7     8 1   
    12     2     1 ar  
    13     2    13 ar  
    14     1    10 ar  
    15    17    16 1   
    16    14    13 1   
    17    14    15 2   
    18    16    15 1   
    19    16    18 1   
    20     8    22 1   
    21    13    12 ar  
    22    22    23 1   
    23    10     9 1   
    24    10    11 ar  
    25    12    11 ar  
    26    23    24 1   
    27     2    25 1   
    28     3    26 1   
    29     5    27 1   
    30     6    28 1   
    31     9    29 1   
    32    11    30 1   
    33    12    31 1   
    34    14    32 1   
    35    15    33 1   
    36    46    34 1   
    37    46    35 1   
    38    20    36 1   
    39    20    37 1   
    40    21    38 1   
    41    22    39 1   
    42    22    40 1   
    43    23    41 1   
    44    23    42 1   
    45    24    43 1   
    46    24    44 1   
    47    24    45 1   
@<TRIPOS>SUBSTRUCTURE
     1 4CU         1 TEMP              0 ****  ****    0 ROOT
