@<TRIPOS>MOLECULE
4CV
   47    50     1     0     0
SMALL
bcc


@<TRIPOS>ATOM
      1 C10          0.0000     0.0000     0.0000 ca         1 4CV       0.005600
      2 C13         -2.2010    -1.2120    -2.7190 c3         1 4CV       0.213900
      3 C15         -2.2550     1.1820    -2.6870 c3         1 4CV       0.213900
      4 C17          1.3960     0.0000     0.0000 ca         1 4CV      -0.004400
      5 C21          5.2880     1.2370    -0.1770 ca         1 4CV       0.696900
      6 C26          3.9220    -0.2090    -3.7730 cc         1 4CV      -0.020500
      7 C28          4.1850     0.2630    -2.4160 ca         1 4CV      -0.390400
      8 C02          3.3500    -2.4430     3.5300 c3         1 4CV       0.262100
      9 S04          2.2650     0.0020     3.9260 sy         1 4CV       1.041200
     10 O05          1.3850     0.5540     4.8950 o          1 4CV      -0.586300
     11 O06          3.5520     0.5400     3.6500 o          1 4CV      -0.586300
     12 C07          1.3880     0.0020     2.3990 ca         1 4CV      -0.131500
     13 C08          0.0050     0.0070     2.3990 ca         1 4CV      -0.015000
     14 C09         -0.6890     0.0070     1.2030 ca         1 4CV      -0.142000
     15 N11         -0.7010     0.0000    -1.2110 nh         1 4CV      -0.409000
     16 C12         -1.4980    -1.2260    -1.3580 c3         1 4CV       0.106300
     17 O14         -2.9990    -0.0310    -2.8250 os         1 4CV      -0.409600
     18 C16         -1.5540     1.1920    -1.3270 c3         1 4CV       0.106300
     19 N18          2.0980    -0.0000    -1.2110 nu         1 4CV      -0.266300
     20 C19          3.4270     0.3830    -1.2400 ca         1 4CV       0.574200
     21 N20          4.0180     0.8770    -0.1550 nb         1 4CV      -0.724000
     22 N22          6.0380     1.1370    -1.2540 nb         1 4CV      -0.681000
     23 C23          5.5350     0.6600    -2.3910 ca         1 4CV       0.296800
     24 N24          6.0430     0.4400    -3.6420 na         1 4CV       0.283900
     25 C25          5.0710    -0.0790    -4.4580 cd         1 4CV      -0.257100
     26 C29          2.0840     0.0000     1.2040 ca         1 4CV      -0.044000
     27 H1          -1.4580    -1.2180    -3.5080 h1         1 4CV       0.012950
     28 H2          -2.8350    -2.0860    -2.8060 h1         1 4CV       0.012950
     29 H3          -2.9280     2.0280    -2.7520 h1         1 4CV       0.012950
     30 H4          -1.5130     1.2420    -3.4750 h1         1 4CV       0.012950
     31 H5           5.7310     1.6340     0.7280 h5         1 4CV       0.008100
     32 H6           4.1770    -1.8670     3.1330 h1         1 4CV       0.001033
     33 H7           3.7340    -3.2910     4.0850 h1         1 4CV       0.001033
     34 H8           2.7320    -2.7970     2.7130 h1         1 4CV       0.001033
     35 H9           2.0980    -1.9350     5.2000 hn         1 4CV       0.345800
     36 H10         -0.5350     0.0130     3.3370 ha         1 4CV       0.123000
     37 H11         -1.7730     0.0090     1.2060 ha         1 4CV       0.117000
     38 H12         -2.2400    -1.2700    -0.5700 h1         1 4CV       0.023950
     39 H13         -0.8470    -2.0890    -1.2980 h1         1 4CV       0.023950
     40 H14         -2.2970     1.1820    -0.5380 h1         1 4CV       0.023950
     41 H15         -0.9420     2.0830    -1.2430 h1         1 4CV       0.023950
     42 H16          1.6480    -0.3070    -2.0500 hn         1 4CV       0.311800
     43 H17          6.9860     0.6300    -3.9200 hn         1 4CV       0.124700
     44 H18          5.2080    -0.3440    -5.5000 h4         1 4CV       0.154000
     45 H19          3.1670    -0.0000     1.2080 ha         1 4CV       0.188000
     46 Br2          2.2850    -0.8860    -4.4340 br         1 4CV      -0.071700
     47 N03          2.5040    -1.5790     4.3560 n7         1 4CV      -0.584100
@<TRIPOS>BOND
     1     1     4 ar  
     2     1    14 ar  
     3     1    15 1   
     4     2    16 1   
     5     2    17 1   
     6     2    27 1   
     7     2    28 1   
     8     3    17 1   
     9     3    18 1   
    10     3    29 1   
    11     3    30 1   
    12     4    19 1   
    13     4    26 ar  
    14     5    21 ar  
    15     5    22 ar  
    16     5    31 1   
    17     6     7 1   
    18     6    25 2   
    19     6    46 1   
    20     7    20 ar  
    21     7    23 ar  
    22     8    32 1   
    23     8    33 1   
    24     8    34 1   
    25     8    47 1   
    26     9    10 2   
    27     9    11 2   
    28     9    12 1   
    29     9    47 1   
    30    12    13 ar  
    31    12    26 ar  
    32    13    14 ar  
    33    13    36 1   
    34    14    37 1   
    35    15    16 1   
    36    15    18 1   
    37    16    38 1   
    38    16    39 1   
    39    18    40 1   
    40    18    41 1   
    41    19    20 1   
    42    19    42 1   
    43    20    21 ar  
    44    22    23 ar  
    45    23    24 1   
    46    24    25 1   
    47    24    43 1   
    48    25    44 1   
    49    26    45 1   
    50    35    47 1   
@<TRIPOS>SUBSTRUCTURE
     1 4CV         1 TEMP              0 ****  ****    0 ROOT
