@<TRIPOS>MOLECULE
molecule
   47    50     1     0     0
SMALL
bcc


@<TRIPOS>ATOM
      1 C10          0.0000     0.0000     0.0000 ca         1 4CV       0.085600
      2 C13         -2.2010    -1.2120    -2.7190 c3         1 4CV       0.137400
      3 C15         -2.2550     1.1820    -2.6870 c3         1 4CV       0.137400
      4 C17          1.3960     0.0000     0.0000 ca         1 4CV       0.158600
      5 C21          5.2880     1.2370    -0.1770 ca         1 4CV       0.748900
      6 C26          3.9220    -0.2090    -3.7730 cc         1 4CV      -0.083500
      7 C28          4.1850     0.2630    -2.4160 ca         1 4CV      -0.385400
      8 C02          3.3500    -2.4430     3.5300 c3         1 4CV       0.224100
      9 S04          2.2650     0.0020     3.9260 sy         1 4CV       1.427200
     10 O05          1.3850     0.5540     4.8950 o          1 4CV      -0.636300
     11 O06          3.5520     0.5400     3.6500 o          1 4CV      -0.636300
     12 C07          1.3880     0.0020     2.3990 ca         1 4CV      -0.298500
     13 C08          0.0050     0.0070     2.3990 ca         1 4CV      -0.048000
     14 C09         -0.6890     0.0070     1.2030 ca         1 4CV      -0.164000
     15 N11         -0.7010     0.0000    -1.2110 nh         1 4CV      -0.627000
     16 C12         -1.4980    -1.2260    -1.3580 c3         1 4CV       0.128300
     17 O14         -2.9990    -0.0310    -2.8250 os         1 4CV      -0.422600
     18 C16         -1.5540     1.1920    -1.3270 c3         1 4CV       0.128300
     19 N18          2.0980    -0.0000    -1.2110 nu         1 4CV      -0.737300
     20 C19          3.4270     0.3830    -1.2400 ca         1 4CV       0.763200
     21 N20          4.0180     0.8770    -0.1550 nb         1 4CV      -0.825000
     22 N22          6.0380     1.1370    -1.2540 nb         1 4CV      -0.797000
     23 C23          5.5350     0.6600    -2.3910 ca         1 4CV       0.526800
     24 N24          6.0430     0.4400    -3.6420 na         1 4CV      -0.265100
     25 C25          5.0710    -0.0790    -4.4580 cd         1 4CV      -0.070100
     26 C29          2.0840     0.0000     1.2040 ca         1 4CV      -0.053000
     27 H1          -1.4580    -1.2180    -3.5080 h1         1 4CV       0.055200
     28 H2          -2.8350    -2.0860    -2.8060 h1         1 4CV       0.055200
     29 H3          -2.9280     2.0280    -2.7520 h1         1 4CV       0.055200
     30 H4          -1.5130     1.2420    -3.4750 h1         1 4CV       0.055200
     31 H5           5.7310     1.6340     0.7280 h5         1 4CV       0.073100
     32 H6           4.1770    -1.8670     3.1330 h1         1 4CV       0.042367
     33 H7           3.7340    -3.2910     4.0850 h1         1 4CV       0.042367
     34 H8           2.7320    -2.7970     2.7130 h1         1 4CV       0.042367
     35 H9           2.0980    -1.9350     5.2000 hn         1 4CV       0.453800
     36 H10         -0.5350     0.0130     3.3370 ha         1 4CV       0.150000
     37 H11         -1.7730     0.0090     1.2060 ha         1 4CV       0.141000
     38 H12         -2.2400    -1.2700    -0.5700 h1         1 4CV       0.050700
     39 H13         -0.8470    -2.0890    -1.2980 h1         1 4CV       0.050700
     40 H14         -2.2970     1.1820    -0.5380 h1         1 4CV       0.050700
     41 H15         -0.9420     2.0830    -1.2430 h1         1 4CV       0.050700
     42 H16          1.6480    -0.3070    -2.0500 hn         1 4CV       0.484800
     43 H17          6.9860     0.6300    -3.9200 hn         1 4CV       0.314700
     44 H18          5.2080    -0.3440    -5.5000 h4         1 4CV       0.184000
     45 H19          3.1670    -0.0000     1.2080 ha         1 4CV       0.205000
     46 Br2          2.2850    -0.8860    -4.4340 br         1 4CV      -0.052700
     47 N03          2.5040    -1.5790     4.3560 n7         1 4CV      -0.919100
@<TRIPOS>BOND
     1    22    23 ar  
     2    22     5 ar  
     3    24    23 1   
     4    24    25 1   
     5    23     7 ar  
     6     5    21 ar  
     7    25     6 2   
     8     7     6 1   
     9     7    20 ar  
    10    21    20 ar  
    11     6    46 1   
    12    20    19 1   
    13    10     9 2   
    14    19     4 1   
    15    26     4 ar  
    16    26    12 ar  
    17    16     2 1   
    18    16    15 1   
    19     4     1 ar  
    20    47     9 1   
    21    47     8 1   
    22     2    17 1   
    23     9    12 1   
    24     9    11 2   
    25    12    13 ar  
    26     1    15 1   
    27     1    14 ar  
    28    15    18 1   
    29    13    14 ar  
    30    17     3 1   
    31    18     3 1   
    32     2    27 1   
    33     2    28 1   
    34     3    29 1   
    35     3    30 1   
    36     5    31 1   
    37     8    32 1   
    38     8    33 1   
    39     8    34 1   
    40    47    35 1   
    41    13    36 1   
    42    14    37 1   
    43    16    38 1   
    44    16    39 1   
    45    18    40 1   
    46    18    41 1   
    47    19    42 1   
    48    24    43 1   
    49    25    44 1   
    50    26    45 1   
@<TRIPOS>SUBSTRUCTURE
     1 4CV         1 TEMP              0 ****  ****    0 ROOT
