@<TRIPOS>MOLECULE
4CW
   33    35     1     0     0
SMALL
bcc


@<TRIPOS>ATOM
      1 N18          0.0000     0.0000     0.0000 nu         1 4CW      -0.271300
      2 C17          1.3980     0.0000     0.0000 ca         1 4CW      -0.038400
      3 C13          3.4750    -0.0050    -1.1980 ca         1 4CW      -0.113000
      4 C10          3.4740    -0.0000     1.1990 ca         1 4CW      -0.139500
      5 C11          4.1650     0.0000     0.0020 ca         1 4CW      -0.011000
      6 C20         -0.6920    -0.6560    -1.0050 ca         1 4CW       0.585200
      7 C28         -4.2180    -0.1880    -0.8910 cc         1 4CW       0.227700
      8 C25         -2.7380    -1.2520    -2.1330 ca         1 4CW       0.249800
      9 C32          2.0930     0.0000     1.2030 ca         1 4CW      -0.031000
     10 C01          3.4530     2.4440     3.4660 c3         1 4CW       0.263100
     11 N05          4.5990     1.5890     3.1450 n7         1 4CW      -0.582100
     12 S07          4.3590     0.0050     2.7240 sy         1 4CW       1.041200
     13 O08          3.4800    -0.5410     3.6980 o          1 4CW      -0.587300
     14 O09          5.6430    -0.5350     2.4450 o          1 4CW      -0.587300
     15 C15          2.0940    -0.0050    -1.2020 ca         1 4CW      -0.053000
     16 N21         -0.0470    -1.3840    -1.9110 nb         1 4CW      -0.731000
     17 C22         -0.6990    -2.0120    -2.8730 ca         1 4CW       0.687900
     18 N24         -2.0080    -1.9560    -2.9920 nb         1 4CW      -0.669000
     19 N26         -4.0770    -0.9930    -1.9830 na         1 4CW       0.178000
     20 N30         -3.0530     0.0580    -0.3670 nd         1 4CW      -0.492100
     21 C31         -2.0920    -0.5710    -1.0870 ca         1 4CW      -0.237200
     22 H1          -0.5000     0.5040     0.7060 hn         1 4CW       0.302800
     23 H2           4.0190    -0.0060    -2.1350 ha         1 4CW       0.109000
     24 H3           5.2480     0.0000     0.0030 ha         1 4CW       0.123000
     25 H4          -5.1610     0.1900    -0.5160 h5         1 4CW       0.032800
     26 H5           1.5530    -0.0000     2.1420 ha         1 4CW       0.126000
     27 H6           2.6650     1.8420     3.9030 h1         1 4CW       0.000367
     28 H7           3.7580     3.2070     4.1710 h1         1 4CW       0.000367
     29 H8           3.0880     2.9140     2.5600 h1         1 4CW       0.000367
     30 H9           5.5290     1.9520     3.2170 hn         1 4CW       0.347800
     31 H10          1.5550    -0.0080    -2.1410 ha         1 4CW       0.136000
     32 H11         -0.1340    -2.5940    -3.5910 h5         1 4CW      -0.001900
     33 H12         -4.8150    -1.3330    -2.5680 hn         1 4CW       0.134700
@<TRIPOS>BOND
     1     1     2 1   
     2     1     6 1   
     3     1    22 1   
     4     2     9 ar  
     5     2    15 ar  
     6     3     5 ar  
     7     3    15 ar  
     8     3    23 1   
     9     4     5 ar  
    10     4     9 ar  
    11     4    12 1   
    12     5    24 1   
    13     6    16 ar  
    14     6    21 ar  
    15     7    19 1   
    16     7    20 2   
    17     7    25 1   
    18     8    18 ar  
    19     8    19 1   
    20     8    21 ar  
    21     9    26 1   
    22    10    11 1   
    23    10    27 1   
    24    10    28 1   
    25    10    29 1   
    26    11    12 1   
    27    11    30 1   
    28    12    13 2   
    29    12    14 2   
    30    15    31 1   
    31    16    17 ar  
    32    17    18 ar  
    33    17    32 1   
    34    19    33 1   
    35    20    21 1   
@<TRIPOS>SUBSTRUCTURE
     1 4CW         1 TEMP              0 ****  ****    0 ROOT
