@<TRIPOS>MOLECULE
molecule
   64    66     1     0     0
SMALL
bcc


@<TRIPOS>ATOM
      1 N1           0.0000     0.0000     0.0000 ns         1 4CX      -0.479100
      2 C4           5.6220    -1.1080    -0.7920 ca         1 4CX      -0.026000
      3 C5           4.2630    -1.0770    -1.0420 ca         1 4CX      -0.133000
      4 C6           3.5830     0.1270    -1.0210 ca         1 4CX      -0.018300
      5 C7           2.1010     0.1600    -1.2950 c3         1 4CX      -0.117100
      6 C8           1.3470     0.0000     0.0000 c          1 4CX       0.660100
      7 C10         -0.1950     0.2280     2.3950 ca         1 4CX      -0.102000
      8 C13         -2.8330    -0.9510     4.7980 cp         1 4CX      -0.073000
      9 C15         -3.9420    -0.1040     6.7590 ca         1 4CX      -0.134000
     10 C20         -3.1720    -0.6160     9.8260 c3         1 4CX      -0.089100
     11 C21         -3.8140    -2.4770     6.3810 ca         1 4CX      -0.020000
     12 C22         -3.1140    -2.2530     5.1970 ca         1 4CX      -0.078000
     13 C24         -2.5900    -1.1760     2.3270 ca         1 4CX      -0.155300
     14 C26         -3.8900    -1.9370     2.2940 c3         1 4CX       0.677200
     15 C28          5.6210     1.2690    -0.4980 ca         1 4CX      -0.026000
     16 C18         -3.9960    -1.8820     9.5790 c3         1 4CX      -0.072700
     17 C19         -4.7630    -2.2470    10.8510 c3         1 4CX      -0.089100
     18 C16         -4.2300    -1.3930     7.1590 ca         1 4CX      -0.029300
     19 C23         -4.1090    -3.8160     6.8000 cg         1 4CX       0.246800
     20 N2          -4.3560    -4.8770     7.1180 n1         1 4CX      -0.365800
     21 C14         -3.2480     0.1220     5.5860 ca         1 4CX      -0.082000
     22 C12         -2.0880    -0.7040     3.5390 cp         1 4CX      -0.005000
     23 C25         -1.8990    -0.9400     1.1580 ca         1 4CX      -0.119000
     24 F2          -4.8840    -1.1890     2.9350 f          1 4CX      -0.220300
     25 F3          -4.2620    -2.1660     0.9650 f          1 4CX      -0.220300
     26 F1          -3.7310    -3.1610     2.9520 f          1 4CX      -0.220300
     27 C11         -0.8850     0.0000     3.5660 ca         1 4CX      -0.105000
     28 C9          -0.6990    -0.2380     1.1870 ca         1 4CX       0.051600
     29 O3           1.9540    -0.1280     1.0430 o          1 4CX      -0.582100
     30 C27          4.2620     1.2990    -0.7490 ca         1 4CX      -0.133000
     31 C3           6.3000     0.0650    -0.5140 ca         1 4CX      -0.294500
     32 S            8.0320     0.0250    -0.1950 sy         1 4CX       1.193300
     33 O1           8.4870    -1.1400    -0.8680 o          1 4CX      -0.619800
     34 O2           8.4890     1.3160    -0.5770 o          1 4CX      -0.619800
     35 C2           8.1570    -0.1880     1.6020 c3         1 4CX      -0.205600
     36 C1           9.6300    -0.2370     2.0100 c3         1 4CX      -0.074100
     37 H1          -0.5000     0.1590    -0.8520 hn         1 4CX       0.328500
     38 H2           6.1540    -2.0510    -0.8090 ha         1 4CX       0.152500
     39 H3           3.7310    -1.9950    -1.2600 ha         1 4CX       0.136500
     40 H4           1.8270     1.1360    -1.6770 hc         1 4CX       0.074700
     41 H5           1.8530    -0.5980    -2.0280 hc         1 4CX       0.074700
     42 H6           0.7400     0.7750     2.4140 ha         1 4CX       0.173000
     43 H7          -4.2640     0.7350     7.3630 ha         1 4CX       0.141000
     44 H8          -5.6820    -2.4610     8.3780 hc         1 4CX       0.058200
     45 H9          -5.5320    -0.7160     8.6290 hc         1 4CX       0.058200
     46 H10         -3.8220     0.2500     9.7960 hc         1 4CX       0.035867
     47 H11         -2.4130    -0.5240     9.0580 hc         1 4CX       0.035867
     48 H12         -2.6970    -0.6780    10.7970 hc         1 4CX       0.035867
     49 H13         -2.7930    -3.0890     4.5870 ha         1 4CX       0.168000
     50 H14          6.1530     2.1880    -0.2850 ha         1 4CX       0.152500
     51 H15         -3.3350    -2.6960     9.3090 hc         1 4CX       0.058700
     52 H16         -5.3280    -3.1550    10.6840 hc         1 4CX       0.035867
     53 H17         -4.0620    -2.4020    11.6630 hc         1 4CX       0.035867
     54 H18         -5.4400    -1.4420    11.1080 hc         1 4CX       0.035867
     55 H19         -3.0300     1.1370     5.2760 ha         1 4CX       0.138000
     56 H20         -2.2530    -1.3600     0.2250 ha         1 4CX       0.151000
     57 H21         -0.4900     0.3640     4.5070 ha         1 4CX       0.149000
     58 H22          3.7290     2.2420    -0.7330 ha         1 4CX       0.136500
     59 H23          7.6750     0.6460     2.0990 h1         1 4CX       0.099200
     60 H24          7.6690    -1.1110     1.8910 h1         1 4CX       0.099200
     61 H25         10.1160     0.6870     1.7200 hc         1 4CX       0.052033
     62 H26          9.7040    -0.3620     3.0830 hc         1 4CX       0.052033
     63 H27         10.1140    -1.0700     1.5150 hc         1 4CX       0.052033
     64 C17         -4.9870    -1.6320     8.4390 c3         1 4CX      -0.042100
@<TRIPOS>BOND
     1    20    19 3
     2    24    14 1
     3    19    11 1
     4    26    14 1
     5    34    32 2
     6    14    25 1
     7    14    13 1
     8    36    35 1
     9    11    12 ar
    10    11    18 ar
    11    64    18 1
    12    64    16 1
    13    12     8 ar
    14    35    32 1
    15    18     9 ar
    16    32    33 2
    17    32    31 1
    18    10    16 1
    19    13    23 ar
    20    13    22 ar
    21     8    22 1
    22     8    21 ar
    23    16    17 1
    24     9    21 ar
    25    15    31 ar
    26    15    30 ar
    27    23    28 ar
    28    22    27 ar
    29    31     2 ar
    30    30     4 ar
    31    28     1 1
    32    28     7 ar
    33    27     7 ar
    34     2     3 ar
    35     1     6 1
    36     4     3 ar
    37     4     5 1
    38     6    29 2
    39     6     5 1
    40     1    37 1
    41     2    38 1
    42     3    39 1
    43     5    40 1
    44     5    41 1
    45     7    42 1
    46     9    43 1
    47    64    44 1
    48    64    45 1
    49    10    46 1
    50    10    47 1
    51    10    48 1
    52    12    49 1
    53    15    50 1
    54    16    51 1
    55    17    52 1
    56    17    53 1
    57    17    54 1
    58    21    55 1
    59    23    56 1
    60    27    57 1
    61    30    58 1
    62    35    59 1
    63    35    60 1
    64    36    61 1
    65    36    62 1
    66    36    63 1
@<TRIPOS>SUBSTRUCTURE
     1 4CX         1 TEMP              0 ****  ****    0 ROOT
