@<TRIPOS>MOLECULE
molecule
   68    71     1     0     0
SMALL
bcc


@<TRIPOS>ATOM
      1 N1           0.0000     0.0000     0.0000 ns         1 4CZ      -0.517400
      2 C4           5.6220    -1.1940    -0.6500 ca         1 4CZ      -0.026000
      3 C5           4.2630    -1.1950    -0.9030 ca         1 4CZ      -0.131500
      4 C6           3.5840     0.0020    -1.0290 ca         1 4CZ      -0.024300
      5 C7           2.1010     0.0010    -1.3040 c3         1 4CZ      -0.109100
      6 C8           1.3480     0.0000     0.0000 c          1 4CZ       0.653100
      7 C10         -2.4970     0.0000     2.5120 cc         1 4CZ       0.492800
      8 C13         -1.9940    -1.2910     5.6170 ca         1 4CZ      -0.175600
      9 C15         -2.2470    -3.6800     5.5710 ca         1 4CZ      -0.152000
     10 C17         -2.3290    -2.5050     7.6620 ca         1 4CZ      -0.145000
     11 C20         -3.4160     0.7060     7.6790 c3         1 4CZ      -0.063700
     12 C21         -4.5030    -0.1280     8.3590 c3         1 4CZ      -0.087600
     13 C22         -3.3150     2.0690     8.3640 c3         1 4CZ      -0.087600
     14 C24         -4.4760     0.8100     3.7940 ca         1 4CZ      -0.102500
     15 C26         -6.6760     0.0140     3.2830 ca         1 4CZ      -0.119000
     16 C28         -4.8080    -0.7950     2.0230 ca         1 4CZ      -0.102500
     17 C18         -2.1350    -1.3080     7.0060 ca         1 4CZ      -0.012300
     18 C16         -2.3860    -3.6890     6.9470 ca         1 4CZ      -0.095000
     19 C14         -2.0520    -2.4890     4.9010 ca         1 4CZ      -0.074000
     20 C11         -1.5410    -0.0060     3.5130 cd         1 4CZ      -0.300000
     21 S2           0.0410    -0.0090     2.7410 ss         1 4CZ       0.009700
     22 C23         -3.9540     0.0040     2.7810 ca         1 4CZ      -0.131500
     23 C27         -6.1640    -0.7860     2.2780 ca         1 4CZ      -0.133000
     24 C25         -5.8340     0.8100     4.0390 ca         1 4CZ      -0.133000
     25 N2          -1.9870     0.0070     1.3000 nd         1 4CZ      -0.732000
     26 C9          -0.6920    -0.0020     1.1980 cc         1 4CZ       0.526300
     27 O3           1.9540    -0.0000     1.0500 o          1 4CZ      -0.566100
     28 C29          4.2620     1.2000    -0.9010 ca         1 4CZ      -0.131500
     29 C30          5.6210     1.2010    -0.6470 ca         1 4CZ      -0.026000
     30 C3           6.3000     0.0040    -0.5220 ca         1 4CZ      -0.291500
     31 S1           8.0320     0.0040    -0.1920 sy         1 4CZ       1.193300
     32 O1           8.2630     1.2420     0.4660 o          1 4CZ      -0.615800
     33 O2           8.2630    -1.2320     0.4700 o          1 4CZ      -0.615800
     34 C2           8.8050     0.0010    -1.8320 c3         1 4CZ      -0.208600
     35 C1          10.3280     0.0020    -1.6780 c3         1 4CZ      -0.074100
     36 H1          -0.5000     0.0070    -0.8670 hn         1 4CZ       0.345500
     37 H2           6.1550    -2.1310    -0.5510 ha         1 4CZ       0.153500
     38 H3           3.7310    -2.1330    -1.0030 ha         1 4CZ       0.137500
     39 H4           1.8400    -0.8830    -1.8730 hc         1 4CZ       0.076200
     40 H5           1.8390     0.8860    -1.8720 hc         1 4CZ       0.076200
     41 H6          -2.2920    -4.6100     5.0170 ha         1 4CZ       0.132000
     42 H7          -2.4390    -2.5190     8.7400 ha         1 4CZ       0.136000
     43 H8          -3.6480     0.8110     6.6260 hc         1 4CZ       0.063700
     44 H9          -4.1140    -0.5480     9.2780 hc         1 4CZ       0.032867
     45 H10         -5.3550     0.5020     8.5820 hc         1 4CZ       0.032867
     46 H11         -4.8110    -0.9290     7.6970 hc         1 4CZ       0.032867
     47 H12         -4.2520     2.6010     8.2500 hc         1 4CZ       0.032867
     48 H13         -2.5160     2.6440     7.9100 hc         1 4CZ       0.032867
     49 H14         -3.1050     1.9290     9.4180 hc         1 4CZ       0.032867
     50 H15         -3.8170     1.4330     4.3860 ha         1 4CZ       0.146000
     51 H16         -7.7410     0.0180     3.4790 ha         1 4CZ       0.129000
     52 H17         -4.4080    -1.4230     1.2350 ha         1 4CZ       0.146000
     53 H18         -1.2890     0.6100     7.3820 hc         1 4CZ       0.059700
     54 H19         -1.8620    -0.2370     8.8250 hc         1 4CZ       0.059700
     55 H20         -2.5390    -4.6260     7.4670 ha         1 4CZ       0.130000
     56 H21         -1.9430    -2.4830     3.8240 ha         1 4CZ       0.138000
     57 H22         -6.8290    -1.4070     1.6900 ha         1 4CZ       0.132000
     58 H23         -6.2420     1.4340     4.8240 ha         1 4CZ       0.132000
     59 H24          3.7290     2.1370    -0.9990 ha         1 4CZ       0.137500
     60 H25          6.1530     2.1390    -0.5470 ha         1 4CZ       0.153500
     61 H26          8.4980     0.8850    -2.3780 h1         1 4CZ       0.096700
     62 H27          8.4980    -0.8840    -2.3750 h1         1 4CZ       0.096700
     63 H28         10.7900    -0.0000    -2.6570 hc         1 4CZ       0.052367
     64 H29         10.6360    -0.8820    -1.1310 hc         1 4CZ       0.052367
     65 H30         10.6360     0.8870    -1.1350 hc         1 4CZ       0.052367
     66 C12         -1.7910    -0.0100     4.9050 c          1 4CZ       0.636300
     67 C19         -2.0730    -0.0200     7.7850 c3         1 4CZ      -0.039100
     68 O4          -1.8370     1.0410     5.5200 o          1 4CZ      -0.522100
@<TRIPOS>BOND
     1     5     6 1
     2     5     4 1
     3    27     6 2
     4     3     4 ar
     5     3     2 ar
     6     6     1 1
     7     4    28 ar
     8     1    26 1
     9     2    30 ar
    10    21    26 1
    11    21    20 1
    12    68    66 2
    13    26    25 2
    14    28    29 ar
    15    20    66 1
    16    20     7 2
    17    66     8 1
    18    25     7 1
    19    30    29 ar
    20    30    31 1
    21     7    22 1
    22    32    31 2
    23    12    11 1
    24    67    11 1
    25    67    17 1
    26    31    34 1
    27    31    33 2
    28    14    22 ar
    29    14    24 ar
    30     8    17 ar
    31     8    19 ar
    32    22    16 ar
    33    11    13 1
    34    34    35 1
    35    17    10 ar
    36    19     9 ar
    37    24    15 ar
    38    16    23 ar
    39    10    18 ar
    40    15    23 ar
    41     9    18 ar
    42     1    36 1
    43     2    37 1
    44     3    38 1
    45     5    39 1
    46     5    40 1
    47     9    41 1
    48    10    42 1
    49    11    43 1
    50    12    44 1
    51    12    45 1
    52    12    46 1
    53    13    47 1
    54    13    48 1
    55    13    49 1
    56    14    50 1
    57    15    51 1
    58    16    52 1
    59    67    53 1
    60    67    54 1
    61    18    55 1
    62    19    56 1
    63    23    57 1
    64    24    58 1
    65    28    59 1
    66    29    60 1
    67    34    61 1
    68    34    62 1
    69    35    63 1
    70    35    64 1
    71    35    65 1
@<TRIPOS>SUBSTRUCTURE
     1 4CZ         1 TEMP              0 ****  ****    0 ROOT
