@<TRIPOS>MOLECULE
4D0
   57    59     1     0     0
SMALL
bcc


@<TRIPOS>ATOM
      1 C11          0.0000     0.0000     0.0000 ca         1 4D0      -0.098000
      2 C13          2.0840     0.0000     1.2100 ca         1 4D0      -0.098000
      3 C14          1.3870     0.0010     2.4010 ca         1 4D0      -0.094500
      4 C15          2.1380    -0.0000    -1.2830 cp         1 4D0      -0.029000
      5 C16          1.4470    -0.0000    -2.4930 ca         1 4D0      -0.100500
      6 C17          2.1450     0.0050    -3.6830 ca         1 4D0      -0.098000
      7 C20          3.5320     0.0050    -1.2820 ca         1 4D0      -0.100500
      8 C19          4.2200     0.0100    -2.4790 ca         1 4D0      -0.098000
      9 C18          3.5280     0.0090    -3.6770 ca         1 4D0      -0.102000
     10 C12          1.3930     0.0000     0.0000 cp         1 4D0      -0.033000
     11 C10         -0.6880     0.0060     1.1960 ca         1 4D0      -0.094500
     12 C9           0.0030     0.0070     2.3940 ca         1 4D0      -0.097300
     13 C8          -0.7540     0.0070     3.6980 c3         1 4D0       0.043900
     14 C7          -1.0040     1.4490     4.1420 c3         1 4D0      -0.097400
     15 C5          -1.7610     1.4500     5.4440 c          1 4D0       0.558100
     16 O6          -2.0700     0.4000     5.9670 o          1 4D0      -0.545100
     17 N4          -2.0940     2.6180     6.0310 ns         1 4D0      -0.179500
     18 C2          -2.7710     2.6180     7.1960 c          1 4D0       0.567100
     19 O3          -3.0800     1.5660     7.7190 o          1 4D0      -0.611100
     20 N1          -3.1050     3.7850     7.7810 ns         1 4D0      -0.192900
     21 C1'         -3.8400     3.7860     9.0480 c3         1 4D0       0.236500
     22 O5'         -5.2390     3.9090     8.7860 os         1 4D0      -0.399600
     23 C5'         -6.0560     3.8950     9.9590 c3         1 4D0       0.172100
     24 C6'         -7.5280     4.0050     9.5580 c3         1 4D0       0.225400
     25 O6'         -7.9080     2.8430     8.8180 oh         1 4D0      -0.575800
     26 C4'         -5.6810     5.0780    10.8550 c3         1 4D0       0.135100
     27 O4'         -6.4570     5.0340    12.0540 oh         1 4D0      -0.579800
     28 C3'         -4.1920     4.9940    11.2030 c3         1 4D0       0.149100
     29 O3'         -3.8170     6.1340    11.9790 oh         1 4D0      -0.590800
     30 C2'         -3.3760     4.9650     9.9070 c3         1 4D0       0.132100
     31 O2'         -1.9910     4.8130    10.2190 oh         1 4D0      -0.573800
     32 H1          -0.5420    -0.0000    -0.9380 ha         1 4D0       0.112000
     33 H2           3.1670    -0.0020     1.2160 ha         1 4D0       0.112000
     34 H3           1.9230     0.0020     3.3420 ha         1 4D0       0.107000
     35 H4           0.3640    -0.0040    -2.4990 ha         1 4D0       0.111000
     36 H5           1.6090     0.0040    -4.6240 ha         1 4D0       0.102000
     37 H6           4.0740     0.0050    -0.3440 ha         1 4D0       0.111000
     38 H7           5.3030     0.0140    -2.4800 ha         1 4D0       0.102000
     39 H8           4.0720     0.0130    -4.6140 ha         1 4D0       0.102000
     40 H9          -1.7710     0.0090     1.1970 ha         1 4D0       0.107000
     41 H10         -1.7020    -0.4990     3.5650 hc         1 4D0       0.036200
     42 H11         -0.1720    -0.5070     4.4530 hc         1 4D0       0.036200
     43 H12         -1.5850     1.9640     3.3860 hc         1 4D0       0.029200
     44 H13         -0.0560     1.9560     4.2750 hc         1 4D0       0.029200
     45 H14         -1.8380     3.4850     5.6000 hn         1 4D0       0.162500
     46 H15         -2.8510     4.6520     7.3490 hn         1 4D0       0.162500
     47 H16         -3.6550     2.8600     9.5780 h2         1 4D0       0.066700
     48 H17         -5.8920     2.9700    10.4990 h1         1 4D0       0.037700
     49 H18         -7.6700     4.8860     8.9440 h1         1 4D0      -0.004300
     50 H19         -8.1410     4.0820    10.4480 h1         1 4D0      -0.004300
     51 H20         -8.8480     2.8090     8.7460 ho         1 4D0       0.387000
     52 H21         -5.8750     6.0040    10.3270 h1         1 4D0       0.019700
     53 H22         -6.8000     5.8930    12.2380 ho         1 4D0       0.398000
     54 H23         -4.0050     4.0880    11.7680 h1         1 4D0       0.031700
     55 H24         -3.5790     5.8590    12.8490 ho         1 4D0       0.404000
     56 H25         -3.5310     5.8890     9.3640 h1         1 4D0       0.016700
     57 H26         -1.5600     5.6490    10.1510 ho         1 4D0       0.397000
@<TRIPOS>BOND
     1     1    10 ar  
     2     1    11 ar  
     3     1    32 1   
     4     2     3 ar  
     5     2    10 ar  
     6     2    33 1   
     7     3    12 ar  
     8     3    34 1   
     9     4     5 ar  
    10     4     7 ar  
    11     4    10 1   
    12     5     6 ar  
    13     5    35 1   
    14     6     9 ar  
    15     6    36 1   
    16     7     8 ar  
    17     7    37 1   
    18     8     9 ar  
    19     8    38 1   
    20     9    39 1   
    21    11    12 ar  
    22    11    40 1   
    23    12    13 1   
    24    13    14 1   
    25    13    41 1   
    26    13    42 1   
    27    14    15 1   
    28    14    43 1   
    29    14    44 1   
    30    15    16 2   
    31    15    17 1   
    32    17    18 1   
    33    17    45 1   
    34    18    19 2   
    35    18    20 1   
    36    20    21 1   
    37    20    46 1   
    38    21    22 1   
    39    21    30 1   
    40    21    47 1   
    41    22    23 1   
    42    23    24 1   
    43    23    26 1   
    44    23    48 1   
    45    24    25 1   
    46    24    49 1   
    47    24    50 1   
    48    25    51 1   
    49    26    27 1   
    50    26    28 1   
    51    26    52 1   
    52    27    53 1   
    53    28    29 1   
    54    28    30 1   
    55    28    54 1   
    56    29    55 1   
    57    30    31 1   
    58    30    56 1   
    59    31    57 1   
@<TRIPOS>SUBSTRUCTURE
     1 4D0         1 TEMP              0 ****  ****    0 ROOT
