@<TRIPOS>MOLECULE
molecule
   54    55     1     0     0
SMALL
bcc


@<TRIPOS>ATOM
      1 C14          0.0000     0.0000     0.0000 ca         1 4D1      -0.102000
      2 C5           4.2230     0.0040    -2.5320 c          1 4D1       0.668300
      3 C11          1.3900    -0.0010     2.4040 ca         1 4D1      -0.129500
      4 C7           3.4880     0.0030    -1.2680 ce         1 4D1      -0.269200
      5 C8           2.1390     0.0020    -1.2720 cf         1 4D1      -0.007200
      6 C9           1.3980     0.0000     0.0000 ca         1 4D1      -0.089800
      7 C10          2.0900     0.0000     1.2160 ca         1 4D1      -0.102000
      8 C12          0.0060    -0.0020     2.3950 ca         1 4D1      -0.061300
      9 C13         -0.6870    -0.0020     1.1960 ca         1 4D1      -0.129500
     10 N1           7.5970     0.0070    -3.6870 ns         1 4D1      -0.579900
     11 C16         -1.6330     1.2450     3.7760 c3         1 4D1      -0.085100
     12 C15         -0.7520    -0.0030     3.6970 c3         1 4D1      -0.034400
     13 C17         -1.6320    -1.2530     3.7750 c3         1 4D1      -0.085100
     14 O6           3.6190     0.0050    -3.5880 o          1 4D1      -0.528100
     15 N4           5.5710     0.0040    -2.5270 ns         1 4D1      -0.588500
     16 C2           6.2490     0.0060    -3.6920 c          1 4D1       0.780100
     17 O3           5.6440     0.0070    -4.7470 o          1 4D1      -0.573100
     18 C1'          8.3340     0.0080    -4.9540 c3         1 4D1       0.334500
     19 O5'          8.6760    -1.3330    -5.3080 os         1 4D1      -0.419600
     20 C5'          9.3780    -1.4490    -6.5480 c3         1 4D1       0.154100
     21 C6'          9.6650    -2.9240    -6.8360 c3         1 4D1       0.152400
     22 O6'          8.4310    -3.6190    -7.0340 oh         1 4D1      -0.591800
     23 C4'         10.6980    -0.6800    -6.4570 c3         1 4D1       0.099100
     24 O4'         11.3770    -0.7470    -7.7130 oh         1 4D1      -0.599800
     25 C3'         10.4060     0.7820    -6.1080 c3         1 4D1       0.111100
     26 O3'         11.6370     1.4910    -5.9500 oh         1 4D1      -0.608800
     27 C2'          9.6120     0.8350    -4.8000 c3         1 4D1       0.096100
     28 O2'          9.2710     2.1910    -4.5030 oh         1 4D1      -0.589800
     29 H1          -0.5430     0.0000    -0.9380 ha         1 4D1       0.134500
     30 H2           1.9240    -0.0010     3.3460 ha         1 4D1       0.134000
     31 H3           4.0260     0.0020    -0.3280 ha         1 4D1       0.128000
     32 H4           1.6010     0.0020    -2.2120 ha         1 4D1       0.161000
     33 H5           3.1740     0.0000     1.2240 ha         1 4D1       0.134500
     34 H6          -1.7700    -0.0020     1.1970 ha         1 4D1       0.134000
     35 H7           8.0940    -0.0400    -2.8200 hn         1 4D1       0.307500
     36 H8          -1.0430     2.1190     3.5270 hc         1 4D1       0.037533
     37 H9          -2.0240     1.3480     4.7810 hc         1 4D1       0.037533
     38 H10         -2.4550     1.1520     3.0770 hc         1 4D1       0.037533
     39 H11         -0.0510    -0.0030     4.5230 hc         1 4D1       0.054700
     40 H12         -2.4990    -1.1240     3.1380 hc         1 4D1       0.037533
     41 H13         -1.0650    -2.1140     3.4430 hc         1 4D1       0.037533
     42 H14         -1.9550    -1.4050     4.7970 hc         1 4D1       0.037533
     43 H15          6.0680    -0.0120    -1.6590 hn         1 4D1       0.311500
     44 H16          7.7190     0.4400    -5.7350 h2         1 4D1       0.100700
     45 H17          8.7730    -1.0310    -7.3430 h1         1 4D1       0.071700
     46 H18         10.2730    -3.0060    -7.7280 h1         1 4D1       0.034200
     47 H19         10.1930    -3.3600    -5.9970 h1         1 4D1       0.034200
     48 H20          8.6060    -4.4750    -7.3870 ho         1 4D1       0.402000
     49 H21         11.3170    -1.1180    -5.6830 h1         1 4D1       0.053700
     50 H22         12.2900    -0.9320    -7.5670 ho         1 4D1       0.413000
     51 H23          9.8230     1.2320    -6.9020 h1         1 4D1       0.067700
     52 H24         11.6990     2.1640    -6.6080 ho         1 4D1       0.417000
     53 H25         10.2120     0.4240    -3.9970 h1         1 4D1       0.049700
     54 H26          9.8740     2.5330    -3.8630 ho         1 4D1       0.411000
@<TRIPOS>BOND
     1    26    25 1
     2    24    23 1
     3    25    23 1
     4    25    27 1
     5    23    20 1
     6    28    27 1
     7    27    18 1
     8    22    21 1
     9    20    21 1
    10    20    19 1
    11    18    19 1
    12    18    10 1
    13    10    16 1
    14    16    17 2
    15    16    15 1
    16    15     2 1
    17     2    14 2
    18     2     4 1
    19     4     5 2
    20     5     6 1
    21     1     6 ar
    22     1     9 ar
    23     6     7 ar
    24     9     8 ar
    25     7     3 ar
    26     8     3 ar
    27     8    12 1
    28    11    12 1
    29    12    13 1
    30     1    29 1
    31     3    30 1
    32     4    31 1
    33     5    32 1
    34     7    33 1
    35     9    34 1
    36    10    35 1
    37    11    36 1
    38    11    37 1
    39    11    38 1
    40    12    39 1
    41    13    40 1
    42    13    41 1
    43    13    42 1
    44    15    43 1
    45    18    44 1
    46    20    45 1
    47    21    46 1
    48    21    47 1
    49    22    48 1
    50    23    49 1
    51    24    50 1
    52    25    51 1
    53    26    52 1
    54    27    53 1
    55    28    54 1
@<TRIPOS>SUBSTRUCTURE
     1 4D1         1 TEMP              0 ****  ****    0 ROOT
