@<TRIPOS>MOLECULE
4D1
   54    57     1     0     0
SMALL
bcc


@<TRIPOS>ATOM
      1 C14          0.0000     0.0000     0.0000 c2         1 4D1      -0.148500
      2 C5           4.2230     0.0040    -2.5320 c3         1 4D1       0.348000
      3 C11          1.3900    -0.0010     2.4040 c2         1 4D1      -0.066000
      4 C7           3.4880     0.0030    -1.2680 c2         1 4D1      -0.170000
      5 C8           2.1390     0.0020    -1.2720 c2         1 4D1       0.019000
      6 C9           1.3980     0.0000     0.0000 c3         1 4D1      -0.011000
      7 C10          2.0900     0.0000     1.2160 c2         1 4D1      -0.148500
      8 C12          0.0060    -0.0020     2.3950 c2         1 4D1      -0.108000
      9 C13         -0.6870    -0.0020     1.1960 c2         1 4D1      -0.066000
     10 N1           7.5970     0.0070    -3.6870 ns         1 4D1       0.003000
     11 C16         -1.6330     1.2450     3.7760 c3         1 4D1      -0.112500
     12 C15         -0.7520    -0.0030     3.6970 c3         1 4D1      -0.039000
     13 C17         -1.6320    -1.2530     3.7750 c3         1 4D1      -0.112500
     14 O6           3.6190     0.0050    -3.5880 o          1 4D1      -0.346000
     15 N4           5.5710     0.0040    -2.5270 ns         1 4D1       0.022000
     16 C2           6.2490     0.0060    -3.6920 c2         1 4D1       0.197000
     17 O3           5.6440     0.0070    -4.7470 o          1 4D1      -0.371000
     18 C1'          8.3340     0.0080    -4.9540 c3         1 4D1       0.090000
     19 O5'          8.6760    -1.3330    -5.3080 os         1 4D1      -0.256000
     20 C5'          9.3780    -1.4490    -6.5480 c3         1 4D1       0.061000
     21 C6'          9.6650    -2.9240    -6.8360 c3         1 4D1       0.075000
     22 O6'          8.4310    -3.6190    -7.0340 oh         1 4D1      -0.302000
     23 C4'         10.6980    -0.6800    -6.4570 c3         1 4D1       0.026000
     24 O4'         11.3770    -0.7470    -7.7130 oh         1 4D1      -0.306000
     25 C3'         10.4060     0.7820    -6.1080 c3         1 4D1       0.036000
     26 O3'         11.6370     1.4910    -5.9500 oh         1 4D1      -0.318000
     27 C2'          9.6120     0.8350    -4.8000 c3         1 4D1       0.018000
     28 O2'          9.2710     2.1910    -4.5030 oh         1 4D1      -0.304000
     29 H1          -0.5430     0.0000    -0.9380 ha         1 4D1       0.119000
     30 H2           1.9240    -0.0010     3.3460 ha         1 4D1       0.109000
     31 H3           3.6360     0.8790    -1.8880 DU         1 4D1       0.021000
     32 H4           1.9910     0.8760    -0.6490 DU         1 4D1       0.099000
     33 H5           3.1740     0.0010     1.2240 ha         1 4D1       0.119000
     34 H6          -1.7700    -0.0020     1.1970 ha         1 4D1       0.109000
     35 H7           8.0940    -0.0140    -2.8190 hn         1 4D1       0.077000
     36 H8          -2.0180     1.3520     4.7830 hc         1 4D1       0.044167
     37 H9          -1.0450     2.1180     3.5200 hc         1 4D1       0.044167
     38 H10         -2.4590     1.1490     3.0820 hc         1 4D1       0.044167
     39 H11         -0.0510    -0.0030     4.5230 hc         1 4D1       0.066000
     40 H12         -1.0570    -2.1180     3.4670 hc         1 4D1       0.044167
     41 H13         -1.9750    -1.3910     4.7930 hc         1 4D1       0.044167
     42 H14         -2.4860    -1.1350     3.1190 hc         1 4D1       0.044167
     43 H15          6.0680    -0.0020    -1.6590 hn         1 4D1       0.085000
     44 H16          7.7190     0.4400    -5.7350 h2         1 4D1       0.105000
     45 H17          8.7730    -1.0320    -7.3430 h1         1 4D1       0.077000
     46 H18         10.1940    -3.3600    -5.9970 h1         1 4D1       0.035000
     47 H19         10.2730    -3.0060    -7.7280 h1         1 4D1       0.035000
     48 H20          8.6040    -4.4620    -7.4200 ho         1 4D1       0.186000
     49 H21         11.3170    -1.1180    -5.6830 h1         1 4D1       0.059000
     50 H22         12.2860    -0.9530    -7.5680 ho         1 4D1       0.197000
     51 H23          9.8230     1.2320    -6.9020 h1         1 4D1       0.071000
     52 H24         11.6870     2.1800    -6.5910 ho         1 4D1       0.202000
     53 H25         10.2120     0.4240    -3.9970 h1         1 4D1       0.057000
     54 H26          9.9070     2.5510    -3.9060 ho         1 4D1       0.197000
@<TRIPOS>BOND
     1     1     6 1   
     2     1     9 1   
     3     1    29 1   
     4     2     4 1   
     5     2    14 1   
     6     2    15 1   
     7     2    31 1   
     8     3     7 1   
     9     3     8 1   
    10     3    30 1   
    11     4     5 1   
    12     4    31 1   
    13     5     6 1   
    14     5    32 1   
    15     6     7 1   
    16     6    32 1   
    17     7    33 1   
    18     8     9 1   
    19     8    12 1   
    20     9    34 1   
    21    10    16 1   
    22    10    18 1   
    23    10    35 1   
    24    11    12 1   
    25    11    36 1   
    26    11    37 1   
    27    11    38 1   
    28    12    13 1   
    29    12    39 1   
    30    13    40 1   
    31    13    41 1   
    32    13    42 1   
    33    15    16 1   
    34    15    43 1   
    35    16    17 1   
    36    18    19 1   
    37    18    27 1   
    38    18    44 1   
    39    19    20 1   
    40    20    21 1   
    41    20    23 1   
    42    20    45 1   
    43    21    22 1   
    44    21    46 1   
    45    21    47 1   
    46    22    48 1   
    47    23    24 1   
    48    23    25 1   
    49    23    49 1   
    50    24    50 1   
    51    25    26 1   
    52    25    27 1   
    53    25    51 1   
    54    26    52 1   
    55    27    28 1   
    56    27    53 1   
    57    28    54 1   
@<TRIPOS>SUBSTRUCTURE
     1 4D1         1 TEMP              0 ****  ****    0 ROOT
