@<TRIPOS>MOLECULE
4D2
   51    53     1     0     0
SMALL
bcc


@<TRIPOS>ATOM
      1 C1           0.0000     0.0000     0.0000 ca         1 4D2      -0.244300
      2 C2           1.3830     0.0000     0.0000 ca         1 4D2      -0.011000
      3 C3           8.2490     1.8420     2.4750 ca         1 4D2      -0.126000
      4 C4           8.5330     3.1610     2.1620 ca         1 4D2      -0.120000
      5 C5          -0.6770     0.0010     1.2060 ca         1 4D2       0.410200
      6 C6           1.2910     0.0010     2.4050 ca         1 4D2       0.417200
      7 C7           2.0470     0.0000     1.2330 ca         1 4D2      -0.262900
      8 C8           7.8060     2.4740     4.7520 ca         1 4D2      -0.051600
      9 C9           7.8870     1.4930     3.7570 ca         1 4D2      -0.079300
     10 C10          8.4590     4.1440     3.1340 ca         1 4D2       0.023100
     11 C11          8.0940     3.8070     4.4350 ca         1 4D2       0.081100
     12 C12          3.5250    -0.0010     1.2920 c          1 4D2       0.588700
     13 C14          8.0630     6.0300     4.2600 c3         1 4D2       0.420200
     14 C17          7.5770     0.0570     4.0890 c3         1 4D2       0.040900
     15 C18          5.7390    -1.5940     4.4640 c3         1 4D2      -0.019400
     16 C19          5.6150    -0.0010     2.5430 c3         1 4D2       0.034000
     17 C20          4.2210    -1.7670     4.5420 c3         1 4D2      -0.099700
     18 C21          6.0680    -0.1750     3.9940 c3         1 4D2      -0.088700
     19 N22         -0.0260     0.0010     2.3530 nb         1 4D2      -0.590000
     20 N23          4.1510     0.0000     2.4860 ns         1 4D2      -0.196900
     21 O24          6.1330     2.2120     6.5140 o          1 4D2      -0.880800
     22 O25          4.1730    -0.0020     0.2640 o          1 4D2      -0.666100
     23 O26          8.2580     1.7060     6.9070 o          1 4D2      -0.880800
     24 O27          8.6860     5.4890     3.0800 os         1 4D2      -0.335900
     25 O28          8.0930     4.9370     5.1960 os         1 4D2      -0.289900
     26 H1          -0.5470    -0.0000    -0.9350 ha         1 4D2       0.109000
     27 H2           1.9390    -0.0010    -0.9300 ha         1 4D2       0.129000
     28 H5          -1.7600     0.0010     1.2090 h4         1 4D2      -0.027900
     29 H3           8.3110     1.0810     1.7070 ha         1 4D2       0.100000
     30 H4           8.8170     3.4250     1.1510 ha         1 4D2       0.094000
     31 H6           1.7900     0.0020     3.3670 h4         1 4D2      -0.006900
     32 H171         8.0870    -0.5930     3.3890 hc         1 4D2       0.028700
     33 H172         7.9140    -0.1620     5.0950 hc         1 4D2       0.028700
     34 H23          3.6180     0.0730     3.3300 hn         1 4D2       0.211500
     35 H141         8.6520     6.8560     4.6410 h2         1 4D2       0.001200
     36 H142         7.0370     6.3000     4.0430 h2         1 4D2       0.001200
     37 H151         4.3540    -3.4200     5.9080 hc         1 4D2       0.006867
     38 H152         2.8170    -3.3160     5.0390 hc         1 4D2       0.006867
     39 H153         4.2670    -3.8890     4.2050 hc         1 4D2       0.006867
     40 H20          3.7840    -1.5600     3.5720 hc         1 4D2       0.034700
     41 H161         2.5960    -1.0020     5.7230 hc         1 4D2       0.006867
     42 H162         4.1750    -0.9180     6.5160 hc         1 4D2       0.006867
     43 H163         3.7730     0.2220     5.2240 hc         1 4D2       0.006867
     44 H21          5.5520     0.5420     4.6220 hc         1 4D2       0.096700
     45 H181         6.1720    -1.7590     5.4440 hc         1 4D2       0.019700
     46 H182         6.1490    -2.3110     3.7630 hc         1 4D2       0.019700
     47 H191         5.9920     0.9380     2.1570 h1         1 4D2       0.033700
     48 H192         5.9990    -0.8180     1.9440 h1         1 4D2       0.033700
     49 C13          7.4180     2.1060     6.1250 c          1 4D2       0.980200
     50 C15          3.8910    -3.2020     4.9540 c3         1 4D2      -0.002100
     51 C16          3.6490    -0.7950     5.5770 c3         1 4D2      -0.002100
@<TRIPOS>BOND
     1     1     2 ar  
     2     1     5 ar  
     3     1    26 1   
     4     2     7 ar  
     5     2    27 1   
     6     3     4 ar  
     7     3     9 ar  
     8     3    29 1   
     9     4    10 ar  
    10     4    30 1   
    11     5    19 ar  
    12     5    28 1   
    13     6     7 ar  
    14     6    19 ar  
    15     6    31 1   
    16     7    12 1   
    17     8     9 ar  
    18     8    11 ar  
    19     8    49 1   
    20     9    14 1   
    21    10    11 ar  
    22    10    24 1   
    23    11    25 1   
    24    12    20 1   
    25    12    22 2   
    26    13    24 1   
    27    13    25 1   
    28    13    35 1   
    29    13    36 1   
    30    14    18 1   
    31    14    32 1   
    32    14    33 1   
    33    15    17 1   
    34    15    18 1   
    35    15    45 1   
    36    15    46 1   
    37    16    18 1   
    38    16    20 1   
    39    16    47 1   
    40    16    48 1   
    41    17    40 1   
    42    17    50 1   
    43    17    51 1   
    44    18    44 1   
    45    20    34 1   
    46    21    49 1   
    47    23    49 1   
    48    37    50 1   
    49    38    50 1   
    50    39    50 1   
    51    41    51 1   
    52    42    51 1   
    53    43    51 1   
@<TRIPOS>SUBSTRUCTURE
     1 4D2         1 TEMP              0 ****  ****    0 ROOT
