@<TRIPOS>MOLECULE
4D3
   23    24     1     0     0
SMALL
bcc


@<TRIPOS>ATOM
      1 CAM          0.0000     0.0000     0.0000 c3         1 4D3       0.018000
      2 OAK          1.4300     0.0000     0.0000 os         1 4D3      -0.183000
      3 CAJ          2.0430     0.0000     1.2010 c2         1 4D3       0.330000
      4 OAL          1.3810     0.0010     2.2220 o          1 4D3      -0.396000
      5 CAI          3.5030    -0.0000     1.2770 c2         1 4D3      -0.159000
      6 CAH          4.1220    -0.0000     2.4910 c3         1 4D3       0.235000
      7 CAN          3.3420     0.0000     3.6920 c1         1 4D3      -0.228000
      8 NAO          2.7280    -0.0180     4.6480 n1         1 4D3       0.043000
      9 CAE          5.5970    -0.0000     2.5670 ca         1 4D3      -0.148000
     10 CAD          6.3240    -1.0940     2.0880 ca         1 4D3      -0.052500
     11 CAC          7.7000    -1.0880     2.1620 ca         1 4D3      -0.121500
     12 CAB          8.3630    -0.0020     2.7100 ca         1 4D3       0.126000
     13 FAG          9.7130    -0.0020     2.7790 f          1 4D3      -0.087000
     14 CAA          7.6480     1.0860     3.1870 ca         1 4D3      -0.121500
     15 CAF          6.2720     1.0950     3.1130 ca         1 4D3      -0.052500
     16 HAM         -0.3850    -0.3280    -0.9580 h1         1 4D3       0.055000
     17 HAO         -0.6030     0.6350     0.6370 h1         1 4D3       0.055000
     18 HAN         -0.1140    -1.0670     0.1470 h1         1 4D3       0.055000
     19 HAI          3.7650     0.6410     2.1100 DU         1 4D3       0.124000
     20 HAD          5.7590    -1.9160     1.6660 ha         1 4D3       0.123000
     21 HAC          7.9940    -1.9330     1.5510 ha         1 4D3       0.131500
     22 HAA          8.0860     2.0590     3.3740 ha         1 4D3       0.131500
     23 HAF          5.4150     1.4240     3.6890 ha         1 4D3       0.123000
@<TRIPOS>BOND
     1     1     2 1   
     2     1    16 1   
     3     1    17 1   
     4     1    18 1   
     5     2     3 1   
     6     3     4 1   
     7     3     5 1   
     8     5     6 1   
     9     5    19 1   
    10     6     7 1   
    11     6     9 1   
    12     6    19 1   
    13     7     8 1   
    14     9    10 1   
    15     9    15 1   
    16    10    11 1   
    17    10    20 1   
    18    11    12 1   
    19    11    21 1   
    20    12    13 1   
    21    12    14 1   
    22    14    15 1   
    23    14    22 1   
    24    15    23 1   
@<TRIPOS>SUBSTRUCTURE
     1 4D3         1 TEMP              0 ****  ****    0 ROOT
