@<TRIPOS>MOLECULE
molecule
   23    23     1     0     0
SMALL
bcc


@<TRIPOS>ATOM
      1 CAM          0.0000     0.0000     0.0000 c3         1 4D3       0.134700
      2 OAK          1.4300     0.0000     0.0000 os         1 4D3      -0.408900
      3 CAJ          2.0430     0.0000     1.2010 c          1 4D3       0.632300
      4 OAL          1.3810     0.0010     2.2220 o          1 4D3      -0.537000
      5 CAI          3.5030    -0.0000     1.2770 ce         1 4D3      -0.186200
      6 CAH          4.1220    -0.0000     2.4910 ce         1 4D3       0.140100
      7 CAN          3.3420     0.0000     3.6920 cg         1 4D3       0.168500
      8 NAO          2.7130     0.0160     4.6380 n1         1 4D3      -0.308800
      9 CAE          5.5970    -0.0000     2.5670 ca         1 4D3      -0.106800
     10 CAD          6.3240    -1.0940     2.0880 ca         1 4D3      -0.070000
     11 CAC          7.7000    -1.0880     2.1620 ca         1 4D3      -0.169500
     12 CAB          8.3630    -0.0020     2.7100 ca         1 4D3       0.153900
     13 FAG          9.7130    -0.0020     2.7790 f          1 4D3      -0.133900
     14 CAA          7.6480     1.0860     3.1870 ca         1 4D3      -0.169500
     15 CAF          6.2720     1.0950     3.1130 ca         1 4D3      -0.070000
     16 HAM         -0.3610    -0.9550     0.3620 h1         1 4D3       0.051033
     17 HAO         -0.3610     0.1630    -1.0080 h1         1 4D3       0.051033
     18 HAN         -0.3610     0.7910     0.6460 h1         1 4D3       0.051033
     19 HAI          4.0600     0.8850     0.9970 ha         1 4D3       0.173000
     20 HAD          5.8050    -1.9430     1.6610 ha         1 4D3       0.148500
     21 HAC          8.2650    -1.9350     1.7920 ha         1 4D3       0.153500
     22 HAA          8.1710     1.9330     3.6140 ha         1 4D3       0.153500
     23 HAF          5.7130     1.9470     3.4810 ha         1 4D3       0.148500
@<TRIPOS>BOND
     1     8     7 3   
     2    11    10 ar  
     3    11    12 ar  
     4    13    12 1   
     5    10     9 ar  
     6    12    14 ar  
     7     7     6 1   
     8     9     6 1   
     9     9    15 ar  
    10    14    15 ar  
    11     6     5 2   
    12     4     3 2   
    13     5     3 1   
    14     3     2 1   
    15     2     1 1   
    16     1    16 1   
    17     1    17 1   
    18     1    18 1   
    19     5    19 1   
    20    10    20 1   
    21    11    21 1   
    22    14    22 1   
    23    15    23 1   
@<TRIPOS>SUBSTRUCTURE
     1 4D3         1 TEMP              0 ****  ****    0 ROOT
