@<TRIPOS>MOLECULE
4D5
   71    77     1     0     0
SMALL
bcc


@<TRIPOS>ATOM
      1 C13          0.0000     0.0000     0.0000 ca         1 4D5      -0.076000
      2 C17         -1.8570    -0.6810    -1.3230 c2         1 4D5       0.322000
      3 C15         -0.0130     0.0110     2.3980 ca         1 4D5      -0.076000
      4 C20          6.2150     1.8970     4.2950 c3         1 4D5       0.336000
      5 C21          6.8880     2.9820     3.5810 c2         1 4D5      -0.175000
      6 C23          7.8030     2.6980     2.6310 c2         1 4D5       0.057000
      7 C24          8.4800     3.7890     1.9130 c3         1 4D5       0.078000
      8 C11          2.0800     0.0000     1.1930 ca         1 4D5      -0.076000
      9 C12          1.3890     0.0000     0.0000 ca         1 4D5      -0.112000
     10 C27          9.5310     3.5060     1.0260 c2         1 4D5      -0.199000
     11 C33         10.1560     1.5660    -0.3610 c2         1 4D5      -0.232000
     12 C1           3.5650     0.4820     5.2680 c2         1 4D5      -0.287000
     13 N2           2.7580    -0.4380     5.7200 n2         1 4D5      -0.067000
     14 C3           1.8600    -0.7490     4.7780 c2         1 4D5      -0.164000
     15 C4           2.1210     0.0180     3.6830 c2         1 4D5      -0.265000
     16 N5           3.2090     0.7990     4.0040 na         1 4D5       0.406000
     17 C6           4.7080     1.0990     6.0350 c3         1 4D5       0.067000
     18 N7           5.3000     2.1790     5.2440 n7         1 4D5      -0.026000
     19 C8           4.1880     1.6620     7.3590 c3         1 4D5      -0.145000
     20 C10          1.3830     0.0110     2.4010 ca         1 4D5      -0.012000
     21 C14         -0.6980     0.0050     1.2020 ca         1 4D5      -0.112000
     22 N16         -0.6990     0.0010    -1.2120 ns         1 4D5       0.136000
     23 O18         -2.3380    -1.2230    -0.3490 o          1 4D5      -0.455000
     24 O19         -2.4780    -0.7610    -2.5150 os         1 4D5      -0.267000
     25 O22          6.4820     0.7380     4.0330 o          1 4D5      -0.410000
     26 C25          5.3480     2.1550     8.1860 c2         1 4D5       0.233000
     27 C26         -3.7210    -1.5110    -2.5600 c3         1 4D5       0.098000
     28 C28         10.1600     4.5420     0.3540 c2         1 4D5      -0.032000
     29 C29          9.7560     5.8470     0.5570 c2         1 4D5      -0.139000
     30 C30          8.7180     6.1330     1.4310 c2         1 4D5      -0.060000
     31 C31          8.0760     5.1140     2.1050 c2         1 4D5      -0.166000
     32 N32          9.9410     2.1840     0.8220 na         1 4D5       0.342000
     33 N34         10.2180     1.2150     1.8010 n2         1 4D5      -0.234000
     34 N35         10.5610     0.1420     1.1730 n2         1 4D5       0.041000
     35 N36         10.5220     0.3390    -0.0950 n2         1 4D5      -0.126000
     36 Cl3          8.2220     7.7780     1.6750 cl         1 4D5       0.077000
     37 O38          6.4700     2.1360     7.7270 o          1 4D5      -0.420000
     38 N39          5.1370     2.6160     9.4340 n          1 4D5      -0.006000
     39 C40          6.2540     3.1030    10.2590 c3         1 4D5      -0.111000
     40 C41          5.8820     4.4850    10.8100 c3         1 4D5       0.049000
     41 O42          4.6050     4.4080    11.4500 os         1 4D5      -0.258000
     42 C43          3.5320     4.0530    10.5740 c3         1 4D5       0.049000
     43 C44          3.7830     2.6560    10.0090 c3         1 4D5      -0.111000
     44 H53         -0.5570     0.0170     3.3350 ha         1 4D5       0.113000
     45 H55          7.3320     2.4120     4.3880 DU         1 4D5       0.071000
     46 H56          8.6200     3.2830     3.0360 DU         1 4D5       0.072000
     47 H50          3.1630     0.0000     1.1920 ha         1 4D5       0.113000
     48 H51          1.9300    -0.0060    -0.9390 ha         1 4D5       0.128500
     49 H63         10.0400     2.0030    -1.3460 h5         1 4D5       0.173000
     50 H45          3.6520     1.4740     3.4130 hn         1 4D5       0.077000
     51 H46          5.4580     0.3440     6.2340 h1         1 4D5       0.128000
     52 H47          5.0070     3.1250     5.3900 hn         1 4D5       0.098000
     53 H48          3.5100     2.4830     7.1600 hc         1 4D5       0.091000
     54 H49          3.6630     0.8840     7.9000 hc         1 4D5       0.091000
     55 H52         -1.7820     0.0050     1.1990 ha         1 4D5       0.128500
     56 H54         -0.3500     0.5240    -1.9910 hn         1 4D5       0.082000
     57 H58         -4.0820    -1.5510    -3.5810 h1         1 4D5       0.041000
     58 H59         -4.4600    -1.0250    -1.9350 h1         1 4D5       0.041000
     59 H57         -3.5490    -2.5180    -2.1990 h1         1 4D5       0.041000
     60 H60         10.9720     4.3280    -0.3310 ha         1 4D5       0.116000
     61 H61         10.2530     6.6530     0.0310 ha         1 4D5       0.126000
     62 H62          7.2650     5.3410     2.7870 ha         1 4D5       0.140000
     63 H64          6.4240     2.4180    11.0810 h1         1 4D5       0.080000
     64 H65          7.1470     3.1820     9.6520 h1         1 4D5       0.080000
     65 H66          5.8350     5.1970     9.9950 h1         1 4D5       0.054750
     66 H67          6.6280     4.7990    11.5290 h1         1 4D5       0.054750
     67 H69          3.4800     4.7670     9.7600 h1         1 4D5       0.054750
     68 H68          2.6000     4.0570    11.1250 h1         1 4D5       0.054750
     69 H71          3.7060     1.9240    10.8050 h1         1 4D5       0.080000
     70 H70          3.0550     2.4400     9.2370 h1         1 4D5       0.080000
     71 Cl9          0.5870    -1.9210     4.9250 cl         1 4D5       0.117000
@<TRIPOS>BOND
     1     1     9 1   
     2     1    21 1   
     3     1    22 1   
     4     2    22 1   
     5     2    23 1   
     6     2    24 1   
     7     3    20 1   
     8     3    21 1   
     9     3    44 1   
    10     4     5 1   
    11     4    18 1   
    12     4    25 1   
    13     4    45 1   
    14     5     6 1   
    15     5    45 1   
    16     6     7 1   
    17     6    46 1   
    18     7    10 1   
    19     7    31 1   
    20     7    46 1   
    21     8     9 1   
    22     8    20 1   
    23     8    47 1   
    24     9    48 1   
    25    10    28 1   
    26    10    32 1   
    27    11    32 1   
    28    11    35 1   
    29    11    49 1   
    30    12    13 1   
    31    12    16 1   
    32    12    17 1   
    33    13    14 1   
    34    14    15 1   
    35    14    71 1   
    36    15    16 1   
    37    15    20 1   
    38    16    50 1   
    39    17    18 1   
    40    17    19 1   
    41    17    51 1   
    42    18    52 1   
    43    19    26 1   
    44    19    53 1   
    45    19    54 1   
    46    21    55 1   
    47    22    56 1   
    48    24    27 1   
    49    26    37 1   
    50    26    38 1   
    51    27    57 1   
    52    27    58 1   
    53    27    59 1   
    54    28    29 1   
    55    28    60 1   
    56    29    30 1   
    57    29    61 1   
    58    30    31 1   
    59    30    36 1   
    60    31    62 1   
    61    32    33 1   
    62    33    34 1   
    63    34    35 1   
    64    38    39 1   
    65    38    43 1   
    66    39    40 1   
    67    39    63 1   
    68    39    64 1   
    69    40    41 1   
    70    40    65 1   
    71    40    66 1   
    72    41    42 1   
    73    42    43 1   
    74    42    67 1   
    75    42    68 1   
    76    43    69 1   
    77    43    70 1   
@<TRIPOS>SUBSTRUCTURE
     1 4D5         1 TEMP              0 ****  ****    0 ROOT
