@<TRIPOS>MOLECULE
molecule
   71    75     1     0     0
SMALL
bcc


@<TRIPOS>ATOM
      1 C13          0.0000     0.0000     0.0000 ca         1 4D5       0.074600
      2 C17         -1.8570    -0.6810    -1.3230 c          1 4D5       0.750100
      3 C15         -0.0130     0.0110     2.3980 ca         1 4D5      -0.094000
      4 C20          6.2150     1.8970     4.2950 c          1 4D5       0.660300
      5 C21          6.8880     2.9820     3.5810 ce         1 4D5      -0.233200
      6 C23          7.8030     2.6980     2.6310 cf         1 4D5      -0.031200
      7 C24          8.4800     3.7890     1.9130 ca         1 4D5      -0.041800
      8 C11          2.0800     0.0000     1.1930 ca         1 4D5      -0.094000
      9 C12          1.3890     0.0000     0.0000 ca         1 4D5      -0.143000
     10 C27          9.5310     3.5060     1.0260 ca         1 4D5       0.020800
     11 C33         10.1560     1.5660    -0.3610 cd         1 4D5       0.411400
     12 C1           3.5650     0.4820     5.2680 cd         1 4D5       0.400800
     13 N2           2.7580    -0.4380     5.7200 nc         1 4D5      -0.692000
     14 C3           1.8600    -0.7490     4.7780 cc         1 4D5       0.431300
     15 C4           2.1210     0.0180     3.6830 cd         1 4D5      -0.163600
     16 N5           3.2090     0.7990     4.0040 na         1 4D5      -0.268900
     17 C6           4.7080     1.0990     6.0350 c3         1 4D5       0.127400
     18 N7           5.3000     2.1790     5.2440 ns         1 4D5      -0.579900
     19 C8           4.1880     1.6620     7.3590 c3         1 4D5      -0.166400
     20 C10          1.3830     0.0110     2.4010 ca         1 4D5      -0.034000
     21 C14         -0.6980     0.0050     1.2020 ca         1 4D5      -0.143000
     22 N16         -0.6990     0.0010    -1.2120 ns         1 4D5      -0.465100
     23 O18         -2.3380    -1.2230    -0.3490 o          1 4D5      -0.595000
     24 O19         -2.4780    -0.7610    -2.5150 os         1 4D5      -0.439900
     25 O22          6.4820     0.7380     4.0330 o          1 4D5      -0.590100
     26 C25          5.3480     2.1550     8.1860 c          1 4D5       0.659100
     27 C26         -3.7210    -1.5110    -2.5600 c3         1 4D5       0.158700
     28 C28         10.1600     4.5420     0.3540 ca         1 4D5      -0.120000
     29 C29          9.7560     5.8470     0.5570 ca         1 4D5      -0.104000
     30 C30          8.7180     6.1330     1.4310 ca         1 4D5       0.034400
     31 C31          8.0760     5.1140     2.1050 ca         1 4D5      -0.103000
     32 N32          9.9410     2.1840     0.8220 na         1 4D5      -0.012500
     33 N34         10.2180     1.2150     1.8010 nd         1 4D5      -0.197800
     34 N35         10.5610     0.1420     1.1730 nc         1 4D5       0.005000
     35 N36         10.5220     0.3390    -0.0950 nc         1 4D5      -0.406000
     36 Cl3          8.2220     7.7780     1.6750 cl         1 4D5      -0.087400
     37 O38          6.4700     2.1360     7.7270 o          1 4D5      -0.601100
     38 N39          5.1370     2.6160     9.4340 n          1 4D5      -0.494800
     39 C40          6.2540     3.1030    10.2590 c3         1 4D5       0.066500
     40 C41          5.8820     4.4850    10.8100 c3         1 4D5       0.120400
     41 O42          4.6050     4.4080    11.4500 os         1 4D5      -0.416600
     42 C43          3.5320     4.0530    10.5740 c3         1 4D5       0.120400
     43 C44          3.7830     2.6560    10.0090 c3         1 4D5       0.066500
     44 H53         -0.5570     0.0170     3.3350 ha         1 4D5       0.143500
     45 H55          6.6510     4.0130     3.8150 ha         1 4D5       0.128000
     46 H56          8.0400     1.6670     2.3970 ha         1 4D5       0.181000
     47 H50          3.1630     0.0000     1.1920 ha         1 4D5       0.143500
     48 H51          1.9300    -0.0060    -0.9390 ha         1 4D5       0.153000
     49 H63         10.0400     2.0030    -1.3460 h5         1 4D5       0.082100
     50 H45          3.6520     1.4740     3.4130 hn         1 4D5       0.308700
     51 H46          5.4580     0.3440     6.2340 h1         1 4D5       0.125700
     52 H47          5.0120     3.1260     5.3950 hn         1 4D5       0.316500
     53 H48          3.5100     2.4830     7.1600 hc         1 4D5       0.082200
     54 H49          3.6630     0.8840     7.9000 hc         1 4D5       0.082200
     55 H52         -1.7820     0.0050     1.1990 ha         1 4D5       0.153000
     56 H54         -0.3530     0.5280    -1.9890 hn         1 4D5       0.333500
     57 H58         -4.4600    -1.0250    -1.9350 h1         1 4D5       0.052033
     58 H59         -3.5490    -2.5180    -2.1990 h1         1 4D5       0.052033
     59 H57         -4.0820    -1.5510    -3.5810 h1         1 4D5       0.052033
     60 H60         10.9720     4.3280    -0.3310 ha         1 4D5       0.151000
     61 H61         10.2530     6.6530     0.0310 ha         1 4D5       0.157000
     62 H62          7.2650     5.3410     2.7870 ha         1 4D5       0.157000
     63 H64          7.1470     3.1820     9.6520 h1         1 4D5       0.066950
     64 H65          6.4240     2.4180    11.0810 h1         1 4D5       0.066950
     65 H66          6.6280     4.7990    11.5290 h1         1 4D5       0.054950
     66 H67          5.8350     5.1970     9.9950 h1         1 4D5       0.054950
     67 H69          3.4800     4.7670     9.7600 h1         1 4D5       0.054950
     68 H68          2.6000     4.0570    11.1250 h1         1 4D5       0.054950
     69 H71          3.7060     1.9240    10.8050 h1         1 4D5       0.066950
     70 H70          3.0550     2.4400     9.2370 h1         1 4D5       0.066950
     71 Cl9          0.5870    -1.9210     4.9250 cl         1 4D5      -0.131000
@<TRIPOS>BOND
     1    35    11 2
     2    35    34 1
     3    41    40 1
     4    41    42 1
     5    11    32 1
     6    40    39 1
     7    39    38 1
     8    34    33 2
     9    42    43 1
    10    43    38 1
    11    38    26 1
    12    32    33 1
    13    32    10 1
    14    71    14 1
    15    28    10 ar
    16    28    29 ar
    17    10     7 ar
    18    19    26 1
    19    19    17 1
    20    26    37 2
    21    13    14 1
    22    13    12 2
    23    29    30 ar
    24    14    15 2
    25     7     6 1
    26     7    31 ar
    27     6     5 2
    28    18    17 1
    29    18     4 1
    30    17    12 1
    31    12    16 1
    32    30    31 ar
    33    30    36 1
    34    15    16 1
    35    15    20 1
    36     5     4 1
    37     4    25 2
    38     3    20 ar
    39     3    21 ar
    40    20     8 ar
    41    21     1 ar
    42     8     9 ar
    43     1     9 ar
    44     1    22 1
    45    23     2 2
    46    22     2 1
    47     2    24 1
    48    24    27 1
    49     3    44 1
    50     5    45 1
    51     6    46 1
    52     8    47 1
    53     9    48 1
    54    11    49 1
    55    16    50 1
    56    17    51 1
    57    18    52 1
    58    19    53 1
    59    19    54 1
    60    21    55 1
    61    22    56 1
    62    27    57 1
    63    27    58 1
    64    27    59 1
    65    28    60 1
    66    29    61 1
    67    31    62 1
    68    39    63 1
    69    39    64 1
    70    40    65 1
    71    40    66 1
    72    42    67 1
    73    42    68 1
    74    43    69 1
    75    43    70 1
@<TRIPOS>SUBSTRUCTURE
     1 4D5         1 TEMP              0 ****  ****    0 ROOT
