@<TRIPOS>MOLECULE
4D7
   38    40     1     0     0
SMALL
bcc


@<TRIPOS>ATOM
      1 C1          0.2980   -0.7360    0.0560 ca        1 4D7     -0.113000
      2 C2          1.7010   -0.8110    0.1320 ca        1 4D7     -0.146000
      3 C3          2.3790   -0.6740    1.3330 ca        1 4D7     -0.079000
      4 C4         -0.4830   -0.5180    1.1810 ca        1 4D7     -0.127000
      5 N5         -0.2740   -0.1440    3.7070 na        1 4D7     -0.266300
      6 C6          0.1790   -0.3760    2.4060 ca        1 4D7     -0.073200
      7 C7          1.6280   -0.4550    2.4980 ca        1 4D7      0.077400
      8 N8          2.0170   -0.2780    3.8370 nc        1 4D7     -0.637100
      9 C9          0.8690   -0.0970    4.5320 cd        1 4D7      0.417800
     10 C10         0.7820    0.1610    6.0000 c3        1 4D7     -0.105700
     11 C11         1.6060   -0.8090    6.8290 c3        1 4D7     -0.061500
     12 C12         1.3470   -0.4770    8.3840 c         1 4D7      0.936600
     13 O13         0.1500   -0.3930    8.7050 o         1 4D7     -0.759800
     14 O14         2.3880   -0.3490    9.0800 o         1 4D7     -0.759800
     15 N15         3.0720   -0.7450    6.5510 n4        1 4D7     -0.639800
     16 C16         3.6570   -1.8840    5.7830 c         1 4D7      0.614700
     17 C17         5.0650   -1.7420    5.4760 cc        1 4D7     -0.344900
     18 O18         2.9420   -2.8400    5.4870 o         1 4D7     -0.466100
     19 C19         5.8010   -2.5840    4.6400 cd        1 4D7      0.398000
     20 O20         7.1140   -2.1380    4.5780 os        1 4D7     -0.348800
     21 C21         7.2050   -1.0020    5.3920 cd        1 4D7      0.260600
     22 C22         5.9820   -0.7230    5.9570 cc        1 4D7     -0.239300
     23 C23         5.4660   -3.7810    3.8650 c3        1 4D7     -0.166400
     24 H1         -0.1890   -0.8530   -0.9240 ha        1 4D7      0.136000
     25 H2          2.2720   -0.9830   -0.7940 ha        1 4D7      0.134000
     26 H3          3.4750   -0.7310    1.3800 ha        1 4D7      0.141000
     27 H4         -1.5780   -0.4590    1.1140 ha        1 4D7      0.140000
     28 H10         1.1000    1.2220    6.1960 hc        1 4D7      0.100700
     29 H10A       -0.2770    0.0610    6.3750 hc        1 4D7      0.100700
     30 H11         1.2540   -1.8650    6.6600 hx        1 4D7      0.117700
     31 HN15        3.5300   -0.7150    7.4990 hn        1 4D7      0.471800
     32 H21         8.1970   -0.5600    5.4290 h4        1 4D7      0.072100
     33 H22         5.7480    0.0890    6.6420 ha        1 4D7      0.173000
     34 H23         5.9500   -4.6810    4.3250 hc        1 4D7      0.085700
     35 H23A        4.3550   -3.9270    3.8600 hc        1 4D7      0.085700
     36 H23B        5.8360   -3.6810    2.8130 hc        1 4D7      0.085700
     37 HN5        -1.2110   -0.0730    4.0020 hn        1 4D7      0.314700
     38 H152        3.3000    0.1230    6.0590 hn        1 4D7      0.471800
@<TRIPOS>BOND
     1    1    2 ar  
     2    1    4 ar  
     3    1   24 1   
     4    2    3 ar  
     5    2   25 1   
     6    3    7 ar  
     7    3   26 1   
     8    4    6 ar  
     9    4   27 1   
    10    5    6 1   
    11    5    9 1   
    12    5   37 1   
    13    6    7 ar  
    14    7    8 1   
    15    8    9 2   
    16    9   10 1   
    17   10   11 1   
    18   10   28 1   
    19   10   29 1   
    20   11   12 1   
    21   11   15 1   
    22   11   30 1   
    23   12   13 1   
    24   12   14 1   
    25   15   16 1   
    26   15   31 1   
    27   15   38 1   
    28   16   17 1   
    29   16   18 2   
    30   17   19 2   
    31   17   22 1   
    32   19   20 1   
    33   19   23 1   
    34   20   21 1   
    35   21   22 2   
    36   21   32 1   
    37   22   33 1   
    38   23   34 1   
    39   23   35 1   
    40   23   36 1   
@<TRIPOS>SUBSTRUCTURE
     1 4D7         1 TEMP              0 ****  ****    0 ROOT
