@<TRIPOS>MOLECULE
4D8
   77    73     1     0     0
SMALL
bcc


@<TRIPOS>ATOM
      1 O3          1.6000    0.8260   -0.1490 oh        1 4D8     -0.386000
      2 OC1         3.9030   -0.1540   -2.9930 o         1 4D8     -0.567000
      3 OC2         1.6730   -0.0920   -2.9380 o         1 4D8     -0.567000
      4 C13         7.4430   -2.9920    3.8420 c3        1 4D8     -0.154000
      5 C14         6.4390    0.3830   -0.8100 c2        1 4D8     -0.094000
      6 C10         4.6770   -2.3500    0.3980 c3        1 4D8     -0.089000
      7 C17        10.3930   -3.4470    0.1880 c2        1 4D8     -0.486000
      8 C5          4.0400   -2.0190   -0.9600 c3        1 4D8     -0.094000
      9 C8          6.6430   -0.8310   -0.0090 c2        1 4D8     -0.325000
     10 C9          5.5360   -1.2010    0.9480 c3        1 4D8     -0.031000
     11 C12         6.9900   -2.7120    2.4240 c3        1 4D8     -0.169000
     12 C15         7.2870    1.4110   -0.8040 c2        1 4D8     -0.242000
     13 C16        10.8870   -4.3470   -0.6200 c1        1 4D8      0.110000
     14 C11         6.1080   -1.4860    2.3340 c3        1 4D8     -0.163000
     15 C4          2.7870   -1.1380   -1.0510 c3        1 4D8     -0.162000
     16 C6          3.8140   -3.3190   -1.7190 c3        1 4D8     -0.197000
     17 C7          7.7330   -1.5610   -0.1530 c1        1 4D8      0.108000
     18 C1         -1.6630   -0.3090    2.5890 c1        1 4D8     -0.233500
     19 C20        10.8680   -3.0250    1.5250 c3        1 4D8     -0.075000
     20 C3          2.7690    0.0300   -0.0580 c3        1 4D8      0.007000
     21 C2         -0.7970   -0.1060    1.7890 c1        1 4D8     -0.233500
     22 C4B         1.5030   -1.9310   -0.9020 c3        1 4D8     -0.182000
     23 C22        13.1260   -5.4720    0.2090 c2        1 4D8     -0.170000
     24 C4A         2.7920   -0.4300   -2.4600 c2        1 4D8      0.328000
     25 C21        10.9660   -1.5220    1.6260 c3        1 4D8     -0.216000
     26 C23        13.6580   -5.7170    1.3690 c1        1 4D8     -0.092000
     27 C24        14.1800   -5.9600    2.5110 cu        1 4D8     -0.160000
     28 C25        14.0950   -5.8740    3.9810 cx        1 4D8     -0.103000
     29 C26        15.2780   -6.5320    3.2970 cx        1 4D8     -0.157000
     30 C27        14.2640   -4.5640    4.6680 c3        1 4D8     -0.190000
     31 H1          1.3600    0.9000   -1.0890 ho        1 4D8      0.247000
     32 H3          6.5460   -3.0710    4.5120 hc        1 4D8      0.073000
     33 H4          9.4690   -2.8980   -0.1550 ha        1 4D8      0.247000
     34 H5          4.8400   -1.4660   -1.5450 hc        1 4D8      0.129000
     35 H6          7.9000   -2.5870    1.7700 hc        1 4D8      0.090000
     36 H7          6.7000   -0.5870    2.6590 hc        1 4D8      0.082500
     37 H8          5.5180    0.3800   -1.4400 ha        1 4D8      0.210000
     38 H9          7.9600   -3.9890    3.8590 hc        1 4D8      0.073000
     39 H10         7.1040    2.3040   -1.4150 ha        1 4D8      0.107500
     40 H11         8.2020    1.4370   -0.2000 ha        1 4D8      0.107500
     41 H12         6.4290   -3.6070    2.0440 hc        1 4D8      0.090000
     42 H13         5.2520   -1.5930    3.0530 hc        1 4D8      0.082500
     43 H14         5.3990   -3.1990    0.1920 hc        1 4D8      0.071000
     44 H15         4.7830   -3.8570   -1.8630 hc        1 4D8      0.065667
     45 H16         3.1150   -3.9970   -1.1750 hc        1 4D8      0.065667
     46 H17         3.3870   -3.0870   -2.7260 hc        1 4D8      0.065667
     47 H18         4.8810   -0.2900    1.0650 hc        1 4D8      0.116000
     48 H19        -2.4310   -0.4890    3.2950 ha        1 4D8      0.231000
     49 H20        10.1420   -3.4040    2.2980 hc        1 4D8      0.082000
     50 H23         7.8530   -0.9690    4.5150 hc        1 4D8      0.071333
     51 H24         2.7730   -0.3240    1.0070 h1        1 4D8      0.061500
     52 H25        -0.0220    0.0760    1.0720 ha        1 4D8      0.231000
     53 H26         3.6610    0.6910   -0.2490 h1        1 4D8      0.061500
     54 H27         3.0180   -3.6210    0.9560 hc        1 4D8      0.070000
     55 H28         3.0620   -2.0420    1.8430 hc        1 4D8      0.070000
     56 H29         4.2270   -3.3570    2.2720 hc        1 4D8      0.070000
     57 H30         1.3720   -2.6310   -1.7620 hc        1 4D8      0.064333
     58 H31         1.4920   -2.5110    0.0510 hc        1 4D8      0.064333
     59 H32         0.6290   -1.2320   -0.9070 hc        1 4D8      0.064333
     60 H33        12.4370   -6.1760   -0.2870 ha        1 4D8      0.151500
     61 H34        11.8670   -3.4900    1.7470 hc        1 4D8      0.082000
     62 H35        11.7080   -1.1230    0.8930 hc        1 4D8      0.077000
     63 H36        11.2880   -1.2280    2.6550 hc        1 4D8      0.077000
     64 H37         9.9730   -1.0550    1.4110 hc        1 4D8      0.077000
     65 H38        13.3320   -4.5440   -0.3480 ha        1 4D8      0.151500
     66 H39        11.3270   -2.8870    4.2290 ha        1 4D8      0.001000
     67 H40        11.2190   -2.8160    4.8950 ha        1 4D8      0.001000
     68 H41        16.2560   -6.0160    3.3020 hc        1 4D8      0.111000
     69 H42        13.3600   -6.5340    4.4880 hc        1 4D8      0.120000
     70 H43        15.3870   -7.6310    3.3490 hc        1 4D8      0.111000
     71 H44        15.0360   -3.9360    4.1610 hc        1 4D8      0.079000
     72 H45        14.5790   -4.7260    5.7280 hc        1 4D8      0.079000
     73 H46        13.2960   -4.0020    4.6670 hc        1 4D8      0.079000
     74 C18         8.3820   -1.9430    4.3780 c3        1 4D8     -0.216000
     75 H21         8.7970   -2.2600    5.3660 hc        1 4D8      0.071333
     76 C19         3.6920   -2.8620    1.4250 c3        1 4D8     -0.206000
     77 H22         9.2370   -1.7820    3.6740 hc        1 4D8      0.071333
@<TRIPOS>BOND
     1    1   20 1
     2    1   31 1
     3    2   24 1
     4    3   24 1
     5    4   11 1
     6    4   32 1
     7    4   38 1
     8    4   74 1
     9    5    9 1
    10    5   12 1
    11    5   37 1
    12    6    8 1
    13    6   10 1
    14    6   43 1
    15    6   76 1
    16    7   13 1
    17    7   19 1
    18    7   33 1
    19    8   15 1
    20    8   16 1
    21    8   34 1
    22    9   10 1
    23    9   17 1
    24   10   14 1
    25   10   47 1
    26   11   14 1
    27   11   35 1
    28   11   41 1
    29   12   39 1
    30   12   40 1
    31   14   36 1
    32   14   42 1
    33   15   20 1
    34   15   22 1
    35   15   24 1
    36   16   44 1
    37   16   45 1
    38   16   46 1
    39   18   21 1
    40   18   48 1
    41   19   25 1
    42   19   49 1
    43   19   61 1
    44   20   51 1
    45   20   53 1
    46   21   52 1
    47   22   57 1
    48   22   58 1
    49   22   59 1
    50   23   26 1
    51   23   60 1
    52   23   65 1
    53   25   62 1
    54   25   63 1
    55   25   64 1
    56   26   27 1
    57   27   28 1
    58   27   29 1
    59   28   29 1
    60   28   30 1
    61   28   69 1
    62   29   68 1
    63   29   70 1
    64   30   71 1
    65   30   72 1
    66   30   73 1
    67   50   74 1
    68   54   76 1
    69   55   76 1
    70   56   76 1
    71   66   67 1
    72   74   75 1
    73   74   77 1
@<TRIPOS>SUBSTRUCTURE
     1 4D8         1 TEMP              0 ****  ****    0 ROOT
