@<TRIPOS>MOLECULE
4D9
   40    43     1     0     0
SMALL
bcc


@<TRIPOS>ATOM
      1 C1           0.0000     0.0000     0.0000 ca         1 4D9      -0.085000
      2 C2           1.3800     0.0000     0.0000 ca         1 4D9      -0.112000
      3 C3           2.0820     0.0000     1.1960 ca         1 4D9      -0.132000
      4 C4           1.4220     0.0000     2.3920 ca         1 4D9      -0.042000
      5 N5          -2.0250     0.0130     1.5500 na         1 4D9       0.266700
      6 C6          -0.6880     0.0060     1.2050 ca         1 4D9      -0.288200
      7 C7           0.0250    -0.0000     2.4170 ca         1 4D9       0.076400
      8 N8          -0.8950    -0.0000     3.4160 nc         1 4D9      -0.538100
      9 C9          -2.0920     0.0000     2.9080 cd         1 4D9       0.231800
     10 C10         -3.3690     0.0010     3.7090 c3         1 4D9      -0.017700
     11 C11         -3.3620    -1.1810     4.6810 c3         1 4D9      -0.096300
     12 C12         -4.6880    -1.2530     5.3930 c          1 4D9       0.972600
     13 N13         -2.2900    -1.0010     5.6620 ns         1 4D9      -0.095900
     14 O14         -4.7330    -1.1620     6.5970 o          1 4D9      -0.882800
     15 O15         -5.8200    -1.4170     4.6910 o          1 4D9      -0.882800
     16 C16         -1.7540    -2.0710     6.2790 c          1 4D9       0.610300
     17 C17         -0.6770    -1.8900     7.2640 cc         1 4D9      -0.002600
     18 O18         -2.1600    -3.1890     6.0210 o          1 4D9      -0.661100
     19 C19         -0.0800    -2.8850     7.9290 cd         1 4D9      -0.070200
     20 S20          0.0060    -0.3400     7.7220 ss         1 4D9      -0.204500
     21 C21          1.1180    -1.1060     8.8490 ca         1 4D9       0.016900
     22 C22          0.9280    -2.4950     8.8260 ca         1 4D9      -0.073800
     23 C23          1.7310    -3.3030     9.6650 ca         1 4D9      -0.060000
     24 C24          2.6670    -2.7390    10.4740 ca         1 4D9      -0.119000
     25 C25          2.8500    -1.3630    10.4960 ca         1 4D9      -0.112000
     26 C26          2.0880    -0.5510     9.6900 ca         1 4D9      -0.057000
     27 H1          -0.5440     0.0000    -0.9370 ha         1 4D9       0.092000
     28 H2           1.9180    -0.0000    -0.9400 ha         1 4D9       0.093000
     29 H3           3.1660    -0.0000     1.1820 ha         1 4D9       0.095000
     30 H4           1.9810     0.0000     3.3200 ha         1 4D9       0.108000
     31 H10         -4.2160    -0.0870     3.0390 hc         1 4D9       0.039200
     32 H10A        -3.4450     0.9270     4.2670 hc         1 4D9       0.039200
     33 H11         -3.1980    -2.1000     4.1310 h1         1 4D9       0.057700
     34 HN13        -1.9850    -0.0790     5.9060 hn         1 4D9       0.170500
     35 H19         -0.3560    -3.9220     7.7860 ha         1 4D9       0.140000
     36 H23          1.6010    -4.3780     9.6600 ha         1 4D9       0.101000
     37 H24          3.2730    -3.3710    11.1130 ha         1 4D9       0.095000
     38 H25          3.6000    -0.9280    11.1470 ha         1 4D9       0.096000
     39 H26          2.2340     0.5220     9.7100 ha         1 4D9       0.104000
     40 HN5         -2.8010     0.0160     0.9180 hn         1 4D9       0.128700
@<TRIPOS>BOND
     1     1     2 ar  
     2     1     6 ar  
     3     1    27 1   
     4     2     3 ar  
     5     2    28 1   
     6     3     4 ar  
     7     3    29 1   
     8     4     7 ar  
     9     4    30 1   
    10     5     6 1   
    11     5     9 1   
    12     5    40 1   
    13     6     7 ar  
    14     7     8 1   
    15     8     9 2   
    16     9    10 1   
    17    10    11 1   
    18    10    31 1   
    19    10    32 1   
    20    11    12 1   
    21    11    13 1   
    22    11    33 1   
    23    12    14 1   
    24    12    15 1   
    25    13    16 1   
    26    13    34 1   
    27    16    17 1   
    28    16    18 2   
    29    17    19 2   
    30    17    20 1   
    31    19    22 1   
    32    19    35 1   
    33    20    21 1   
    34    21    22 ar  
    35    21    26 ar  
    36    22    23 ar  
    37    23    24 ar  
    38    23    36 1   
    39    24    25 ar  
    40    24    37 1   
    41    25    26 ar  
    42    25    38 1   
    43    26    39 1   
@<TRIPOS>SUBSTRUCTURE
     1 4D9         1 TEMP              0 ****  ****    0 ROOT
