@<TRIPOS>MOLECULE
molecule
   40    43     1     0     0
SMALL
bcc


@<TRIPOS>ATOM
      1 C1           0.0000     0.0000     0.0000 ca         1 4D9      -0.127000
      2 C2           1.3800     0.0000     0.0000 ca         1 4D9      -0.134000
      3 C3           2.0820     0.0000     1.1960 ca         1 4D9      -0.156000
      4 C4           1.4220     0.0000     2.3920 ca         1 4D9      -0.075000
      5 N5          -2.0250     0.0130     1.5500 na         1 4D9      -0.267300
      6 C6          -0.6880     0.0060     1.2050 ca         1 4D9      -0.105200
      7 C7           0.0250    -0.0000     2.4170 ca         1 4D9       0.103400
      8 N8          -0.8950    -0.0000     3.4160 nc         1 4D9      -0.615100
      9 C9          -2.0920     0.0000     2.9080 cd         1 4D9       0.447800
     10 C10         -3.3690     0.0010     3.7090 c3         1 4D9      -0.087700
     11 C11         -3.3620    -1.1810     4.6810 c3         1 4D9       0.017700
     12 C12         -4.6880    -1.2530     5.3930 c          1 4D9       0.882600
     13 N13         -2.2900    -1.0010     5.6620 ns         1 4D9      -0.521900
     14 O14         -4.7330    -1.1620     6.5970 o          1 4D9      -0.831300
     15 O15         -5.8200    -1.4170     4.6910 o          1 4D9      -0.831300
     16 C16         -1.7540    -2.0710     6.2790 c          1 4D9       0.700300
     17 C17         -0.6770    -1.8900     7.2640 cd         1 4D9      -0.047600
     18 O18         -2.1600    -3.1890     6.0210 o          1 4D9      -0.612100
     19 C19         -0.0800    -2.8850     7.9290 cc         1 4D9      -0.101200
     20 S20          0.0060    -0.3400     7.7220 ss         1 4D9      -0.081500
     21 C21          1.1180    -1.1060     8.8490 ca         1 4D9      -0.023100
     22 C22          0.9280    -2.4950     8.8260 ca         1 4D9      -0.075800
     23 C23          1.7310    -3.3030     9.6650 ca         1 4D9      -0.089000
     24 C24          2.6670    -2.7390    10.4740 ca         1 4D9      -0.145000
     25 C25          2.8500    -1.3630    10.4960 ca         1 4D9      -0.132000
     26 C26          2.0880    -0.5510     9.6900 ca         1 4D9      -0.096000
     27 H1          -0.5440     0.0000    -0.9370 ha         1 4D9       0.117000
     28 H2           1.9180    -0.0000    -0.9400 ha         1 4D9       0.119000
     29 H3           3.1660    -0.0000     1.1820 ha         1 4D9       0.120000
     30 H4           1.9810     0.0000     3.3200 ha         1 4D9       0.138000
     31 H10         -4.2160    -0.0870     3.0390 hc         1 4D9       0.076200
     32 H10A        -3.4450     0.9270     4.2670 hc         1 4D9       0.076200
     33 H11         -3.1980    -2.1000     4.1310 h1         1 4D9       0.080700
     34 HN13        -1.9850    -0.0790     5.9060 hn         1 4D9       0.309500
     35 H19         -0.3560    -3.9220     7.7860 ha         1 4D9       0.169000
     36 H23          1.6010    -4.3780     9.6600 ha         1 4D9       0.129000
     37 H24          3.2730    -3.3710    11.1130 ha         1 4D9       0.119000
     38 H25          3.6000    -0.9280    11.1470 ha         1 4D9       0.121000
     39 H26          2.2340     0.5220     9.7100 ha         1 4D9       0.127000
     40 HN5         -2.8010     0.0160     0.9180 hn         1 4D9       0.301700
@<TRIPOS>BOND
     1     6     1 ar  
     2     2     1 ar  
     3     1    27 1   
     4     3     2 ar  
     5     2    28 1   
     6     4     3 ar  
     7     3    29 1   
     8     4     7 ar  
     9     4    30 1   
    10     9     5 1   
    11     5     6 1   
    12     7     6 ar  
    13     8     7 1   
    14     8     9 2   
    15    10     9 1   
    16    11    10 1   
    17    10    31 1   
    18    10    32 1   
    19    13    11 1   
    20    12    11 1   
    21    11    33 1   
    22    14    12 1   
    23    12    15 1   
    24    16    13 1   
    25    13    34 1   
    26    17    16 1   
    27    16    18 2   
    28    19    17 2   
    29    20    17 1   
    30    22    19 1   
    31    19    35 1   
    32    21    20 1   
    33    26    21 ar  
    34    22    21 ar  
    35    23    22 ar  
    36    24    23 ar  
    37    23    36 1   
    38    24    25 ar  
    39    24    37 1   
    40    25    26 ar  
    41    25    38 1   
    42    26    39 1   
    43     5    40 1   
@<TRIPOS>SUBSTRUCTURE
     1 4D9         1 TEMP              0 ****  ****    0 ROOT
