@<TRIPOS>MOLECULE
molecule
   47    49     1     0     0
SMALL
bcc


@<TRIPOS>ATOM
      1 C1           0.0000     0.0000     0.0000 ca         1 4DC      -0.014300
      2 C2           1.3830     0.0000     0.0000 ca         1 4DC      -0.129000
      3 C3           2.0740     0.0000     1.1970 ca         1 4DC      -0.029000
      4 C4           1.3830    -0.0010     2.3940 ca         1 4DC      -0.295500
      5 C5           0.0000    -0.0010     2.3940 ca         1 4DC      -0.029000
      6 C6          -0.6910     0.0060     1.1970 ca         1 4DC      -0.129000
      7 C8          -0.3950    -1.2330    -2.0930 c          1 4DC       0.646100
      8 O9           0.3570    -2.0580    -1.6180 o          1 4DC      -0.510100
      9 C10         -0.7530     0.0000    -1.3050 c3         1 4DC      -0.106400
     10 C11         -0.3790     1.2460    -2.1100 c3         1 4DC      -0.067400
     11 C12         -0.8810     2.4940    -1.3810 c3         1 4DC      -0.076700
     12 C13         -0.4040     3.7610    -2.1130 c3         1 4DC      -0.080900
     13 C14         -1.6730     4.5230    -2.5480 c3         1 4DC      -0.083400
     14 C15         -2.7660     4.0320    -1.5660 c3         1 4DC      -0.083400
     15 C16         -2.4230     2.5310    -1.3950 c3         1 4DC      -0.080900
     16 C17         -0.4960    -2.5000    -4.0940 cc         1 4DC       0.574300
     17 S18         -1.0630    -2.8560    -5.6680 ss         1 4DC      -0.249300
     18 C19         -0.0200    -4.2750    -5.7330 cc         1 4DC      -0.204400
     19 C20          0.6490    -4.3500    -4.5820 cd         1 4DC       0.399200
     20 N21          0.3780    -3.3830    -3.7250 nd         1 4DC      -0.685000
     21 S22          2.2630    -0.0030     3.9200 sy         1 4DC       1.191300
     22 C23          2.4920     1.7530     4.3140 c3         1 4DC      -0.228300
     23 O24          1.3670    -0.6090     4.8420 o          1 4DC      -0.616300
     24 O25          3.5090    -0.6100     3.6040 o          1 4DC      -0.616300
     25 H2           1.9240    -0.0020    -0.9380 ha         1 4DC       0.139500
     26 H3           3.1570    -0.0000     1.1970 ha         1 4DC       0.151500
     27 H5          -0.5410     0.0010     3.3330 ha         1 4DC       0.151500
     28 H6          -1.7750     0.0060     1.1980 ha         1 4DC       0.139500
     29 HN7         -1.6190    -0.8030    -3.6680 hn         1 4DC       0.334500
     30 H10         -1.8180     0.0050    -1.1070 hc         1 4DC       0.077700
     31 H11         -0.8360     1.1930    -3.0910 hc         1 4DC       0.051200
     32 H11A         0.6980     1.2980    -2.2160 hc         1 4DC       0.051200
     33 H12         -0.5220     2.5030    -0.3590 hc         1 4DC       0.062700
     34 H13          0.1790     3.4880    -2.9840 hc         1 4DC       0.043450
     35 H13A         0.1840     4.3760    -1.4430 hc         1 4DC       0.043450
     36 H14         -1.9370     4.2660    -3.5670 hc         1 4DC       0.045950
     37 H14A        -1.5250     5.5920    -2.4460 hc         1 4DC       0.045950
     38 H15         -2.6900     4.5510    -0.6190 hc         1 4DC       0.045950
     39 H15A        -3.7510     4.1520    -2.0000 hc         1 4DC       0.045950
     40 H16         -2.8070     1.9590    -2.2320 hc         1 4DC       0.043450
     41 H16A        -2.8190     2.1580    -0.4590 hc         1 4DC       0.043450
     42 H19          0.0610    -4.9670    -6.5630 h4         1 4DC       0.182000
     43 H20          1.3620    -5.1370    -4.3690 h4         1 4DC       0.050100
     44 H23          3.0560     2.2300     3.5220 h1         1 4DC       0.097033
     45 H23A         3.0320     1.8460     5.2480 h1         1 4DC       0.097033
     46 H23B         1.5240     2.2310     4.4070 h1         1 4DC       0.097033
     47 N7          -0.9080    -1.4190    -3.3250 ns         1 4DC      -0.534400
@<TRIPOS>BOND
     1     2     1 ar  
     2     1     9 1   
     3     1     6 ar  
     4     3     2 ar  
     5     2    25 1   
     6     3     4 ar  
     7     3    26 1   
     8    21     4 1   
     9     4     5 ar  
    10     5     6 ar  
    11     5    27 1   
    12     6    28 1   
    13    47     7 1   
    14    47    16 1   
    15    47    29 1   
    16     9     7 1   
    17     7     8 2   
    18     9    10 1   
    19     9    30 1   
    20    11    10 1   
    21    10    31 1   
    22    10    32 1   
    23    15    11 1   
    24    11    12 1   
    25    11    33 1   
    26    13    12 1   
    27    12    34 1   
    28    12    35 1   
    29    14    13 1   
    30    13    36 1   
    31    13    37 1   
    32    15    14 1   
    33    14    38 1   
    34    14    39 1   
    35    15    40 1   
    36    15    41 1   
    37    20    16 2   
    38    16    17 1   
    39    17    18 1   
    40    19    18 2   
    41    18    42 1   
    42    20    19 1   
    43    19    43 1   
    44    22    21 1   
    45    23    21 2   
    46    21    24 2   
    47    22    44 1   
    48    22    45 1   
    49    22    46 1   
@<TRIPOS>SUBSTRUCTURE
     1 4DC         1 TEMP              0 ****  ****    0 ROOT
