@<TRIPOS>MOLECULE
molecule
   27    27     1     0     0
SMALL
bcc


@<TRIPOS>ATOM
      1 C1           1.5290     0.0000     0.0000 c3         1 4DD       0.096500
      2 C2           2.0390     0.0000     1.4430 c3         1 4DD      -0.106400
      3 C3           3.5650    -0.1270     1.4450 c3         1 4DD      -0.039100
      4 N            2.0190     1.1990    -0.6920 nz         1 4DD      -0.810600
      5 C            0.0000     0.0000     0.0000 c3         1 4DD      -0.120100
      6 C4           4.0660    -0.1270     2.8650 ca         1 4DD      -0.116300
      7 C5           4.3900     1.0660     3.4850 ca         1 4DD      -0.120000
      8 C6           4.8510     1.0640     4.7880 ca         1 4DD      -0.113000
      9 C7           4.9880    -0.1290     5.4730 ca         1 4DD      -0.104000
     10 C8           4.6630    -1.3210     4.8530 ca         1 4DD      -0.113000
     11 C9           4.1980    -1.3200     3.5510 ca         1 4DD      -0.120000
     12 H1           1.8910    -0.8840    -0.5110 hx         1 4DD       0.116700
     13 H2           1.6070    -0.8360     1.9790 hc         1 4DD       0.089700
     14 H3           1.7530     0.9260     1.9270 hc         1 4DD       0.089700
     15 H4           3.8510    -1.0530     0.9610 hc         1 4DD       0.042700
     16 H5           3.9980     0.7090     0.9090 hc         1 4DD       0.042700
     17 H6           1.9650     1.9860    -0.0750 hn         1 4DD       0.455133
     18 H7           2.9700     1.0590    -0.9700 hn         1 4DD       0.455133
     19 H9          -0.3610    -0.0360    -1.0210 hc         1 4DD       0.077033
     20 H10         -0.3610     0.9020     0.4790 hc         1 4DD       0.077033
     21 H11         -0.3610    -0.8660     0.5420 hc         1 4DD       0.077033
     22 H12          4.2830     2.0010     2.9490 ha         1 4DD       0.125000
     23 H13          5.1050     1.9990     5.2730 ha         1 4DD       0.145500
     24 H14          5.3510    -0.1290     6.4930 ha         1 4DD       0.148000
     25 H15          4.7690    -2.2560     5.3900 ha         1 4DD       0.145500
     26 H16          3.9440    -2.2550     3.0660 ha         1 4DD       0.125000
     27 HN3          1.4400     1.3860    -1.4870 hn         1 4DD       0.455133
@<TRIPOS>BOND
     1     5     1 1   
     2     4     1 1   
     3     1     2 1   
     4     2     3 1   
     5     3     6 1   
     6     6    11 ar  
     7     6     7 ar  
     8    11    10 ar  
     9     7     8 ar  
    10    10     9 ar  
    11     8     9 ar  
    12     1    12 1   
    13     2    13 1   
    14     2    14 1   
    15     3    15 1   
    16     3    16 1   
    17     4    17 1   
    18     4    18 1   
    19     5    19 1   
    20     5    20 1   
    21     5    21 1   
    22     7    22 1   
    23     8    23 1   
    24     9    24 1   
    25    10    25 1   
    26    11    26 1   
    27    27     4 1   
@<TRIPOS>SUBSTRUCTURE
     1 4DD         1 TEMP              0 ****  ****    0 ROOT
