@<TRIPOS>MOLECULE
4DE
   38    39     1     0     0
SMALL
bcc


@<TRIPOS>ATOM
      1 O3          1.0840    1.4700    0.7150 o         1 4DE     -0.558000
      2 C2          1.4890    0.4250    0.1930 c         1 4DE      0.690700
      3 O4          1.3340   -0.7400    0.9090 os        1 4DE     -0.452900
      4 C5          0.7230   -0.6440    2.2030 c3        1 4DE      0.141400
      5 C6          1.7250   -0.2100    3.2450 c3        1 4DE     -0.125100
      6 C1          2.1110    0.2470   -1.0970 cc        1 4DE     -0.329900
      7 C7          2.4450    1.3100   -2.0350 cc        1 4DE      0.383600
      8 C8          2.2250    2.7540   -1.8240 c3        1 4DE     -0.141400
      9 N9          3.0120    0.7710   -3.1470 nd        1 4DE     -0.514800
     10 N10         3.0610   -0.5670   -2.9630 na        1 4DE      0.165300
     11 C12         2.5180   -0.9520   -1.7280 cd        1 4DE      0.004400
     12 C13         2.4020   -2.3330   -1.2340 c3        1 4DE     -0.050800
     13 C11         3.5920   -1.4540   -3.9470 ca        1 4DE     -0.026200
     14 C14         4.4550   -2.4980   -3.5700 ca        1 4DE     -0.087500
     15 C15         4.9690   -3.3660   -4.5290 ca        1 4DE     -0.174000
     16 C16         4.6340   -3.1870   -5.8760 ca        1 4DE      0.131100
     17 C19         3.7840   -2.1350   -6.2670 ca        1 4DE     -0.174000
     18 C20         3.2670   -1.2750   -5.3100 ca        1 4DE     -0.087500
     19 O17         5.0820   -3.9860   -6.9070 os        1 4DE     -0.321900
     20 C18         5.9750   -5.0350   -6.5500 c3        1 4DE      0.111700
     21 H51        -0.1480    0.0610    2.1640 h1        1 4DE      0.060200
     22 H52         0.3660   -1.6940    2.3860 h1        1 4DE      0.060200
     23 H61         2.6120   -0.8870    3.2450 hc        1 4DE      0.048367
     24 H62         1.2490   -0.2340    4.2540 hc        1 4DE      0.048367
     25 H63         2.0720    0.8310    3.0320 hc        1 4DE      0.048367
     26 H81         1.4500    2.9050   -1.0300 hc        1 4DE      0.065033
     27 H82         3.1790    3.2350   -1.4880 hc        1 4DE      0.065033
     28 H83         1.8890    3.2550   -2.7650 hc        1 4DE      0.065033
     29 H131        2.3800   -3.0770   -2.0690 hc        1 4DE      0.068700
     30 H132        1.4610   -2.4310   -0.6330 hc        1 4DE      0.068700
     31 H133        3.2680   -2.5670   -0.5630 hc        1 4DE      0.068700
     32 H14         4.7370   -2.6380   -2.5140 ha        1 4DE      0.153000
     33 H15         5.6380   -4.1790   -4.2140 ha        1 4DE      0.151000
     34 H19         3.5390   -2.0060   -7.3320 ha        1 4DE      0.151000
     35 H20         2.6090   -0.4490   -5.6250 ha        1 4DE      0.153000
     36 H181        6.9020   -4.6230   -6.0840 h1        1 4DE      0.047367
     37 H182        5.4760   -5.7580   -5.8600 h1        1 4DE      0.047367
     38 H183        6.2070   -5.5220   -7.5320 h1        1 4DE      0.047367
@<TRIPOS>BOND
     1    1    2 2   
     2    2    3 1   
     3    2    6 1   
     4    3    4 1   
     5    4    5 1   
     6    4   21 1   
     7    4   22 1   
     8    5   23 1   
     9    5   24 1   
    10    5   25 1   
    11    6    7 1   
    12    6   11 2   
    13    7    8 1   
    14    7    9 2   
    15    8   26 1   
    16    8   27 1   
    17    8   28 1   
    18    9   10 1   
    19   10   11 1   
    20   10   13 1   
    21   11   12 1   
    22   12   29 1   
    23   12   30 1   
    24   12   31 1   
    25   13   14 ar  
    26   13   18 ar  
    27   14   15 ar  
    28   14   32 1   
    29   15   16 ar  
    30   15   33 1   
    31   16   17 ar  
    32   16   19 1   
    33   17   18 ar  
    34   17   34 1   
    35   18   35 1   
    36   19   20 1   
    37   20   36 1   
    38   20   37 1   
    39   20   38 1   
@<TRIPOS>SUBSTRUCTURE
     1 4DE         1 TEMP              0 ****  ****    0 ROOT
