@<TRIPOS>MOLECULE
molecule
   38    39     1     0     0
SMALL
bcc


@<TRIPOS>ATOM
      1 O3           0.0000     0.0000     0.0000 o          1 4DE      -0.543000
      2 C2           1.2150     0.0000     0.0000 c          1 4DE       0.688700
      3 O4           1.8880     0.0000     1.1660 os         1 4DE      -0.436900
      4 C5           1.1630     0.0000     2.4240 c3         1 4DE       0.151400
      5 C6           2.1570     0.0000     3.5870 c3         1 4DE      -0.095100
      6 C1           1.9520    -0.0010    -1.2750 cc         1 4DE      -0.340900
      7 C7           2.3710     1.1350    -2.0030 cc         1 4DE       0.388600
      8 C8           2.1440     2.5720    -1.6080 c3         1 4DE      -0.117400
      9 N9           2.9900     0.7240    -3.0740 nd         1 4DE      -0.510800
     10 N10          2.9960    -0.6750    -3.0860 na         1 4DE       0.165300
     11 C12          2.3660    -1.1130    -1.9830 cd         1 4DE      -0.015600
     12 C13          2.1430    -2.5520    -1.5950 c3         1 4DE      -0.036800
     13 C11          3.5690    -1.4840    -4.0780 ca         1 4DE      -0.012200
     14 C14          4.2600    -2.6330    -3.7240 ca         1 4DE      -0.091000
     15 C15          4.8180    -3.4320    -4.7020 ca         1 4DE      -0.180000
     16 C16          4.6970    -3.0790    -6.0380 ca         1 4DE       0.121100
     17 C19          4.0120    -1.9270    -6.3920 ca         1 4DE      -0.180000
     18 C20          3.4490    -1.1310    -5.4160 ca         1 4DE      -0.091000
     19 O17          5.2520    -3.8640    -7.0010 os         1 4DE      -0.292900
     20 C18          5.8800    -4.9580    -6.3310 c3         1 4DE       0.103700
     21 H51          0.5400     0.8850     2.4820 h1         1 4DE       0.045700
     22 H52          0.5400    -0.8840     2.4820 h1         1 4DE       0.045700
     23 H61          2.6890    -0.9430     3.6060 hc         1 4DE       0.047367
     24 H62          1.6220     0.1320     4.5190 hc         1 4DE       0.047367
     25 H63          2.8630     0.8110     3.4580 hc         1 4DE       0.047367
     26 H81          1.0850     2.7420    -1.4570 hc         1 4DE       0.057033
     27 H82          2.6780     2.7830    -0.6890 hc         1 4DE       0.057033
     28 H83          2.5060     3.2240    -2.3940 hc         1 4DE       0.057033
     29 H131         3.0290    -2.9340    -1.1030 hc         1 4DE       0.059700
     30 H132         1.2980    -2.6170    -0.9200 hc         1 4DE       0.059700
     31 H133         1.9420    -3.1380    -2.4830 hc         1 4DE       0.059700
     32 H14          4.3550    -2.9080    -2.6800 ha         1 4DE       0.151500
     33 H15          5.3560    -4.3300    -4.4250 ha         1 4DE       0.151000
     34 H19          3.9180    -1.6530    -7.4360 ha         1 4DE       0.151000
     35 H20          2.9130    -0.2310    -5.6930 ha         1 4DE       0.151500
     36 H181         5.1380    -5.5100    -5.7660 h1         1 4DE       0.046033
     37 H182         6.3380    -5.6140    -7.0620 h1         1 4DE       0.046033
     38 H183         6.6400    -4.5810    -5.6570 h1         1 4DE       0.046033
@<TRIPOS>BOND
     1     1     2 2
     2     2     3 1
     3     2     6 1
     4     3     4 1
     5     4     5 1
     6     4    21 1
     7     4    22 1
     8     5    23 1
     9     5    24 1
    10     5    25 1
    11     6     7 1
    12     6    11 2
    13     7     8 1
    14     7     9 2
    15     8    26 1
    16     8    27 1
    17     8    28 1
    18     9    10 1
    19    10    11 1
    20    10    13 1
    21    11    12 1
    22    12    29 1
    23    12    30 1
    24    12    31 1
    25    13    14 ar
    26    13    18 ar
    27    14    15 ar
    28    14    32 1
    29    15    16 ar
    30    15    33 1
    31    16    17 ar
    32    16    19 1
    33    17    18 ar
    34    17    34 1
    35    18    35 1
    36    19    20 1
    37    20    36 1
    38    20    37 1
    39    20    38 1
@<TRIPOS>SUBSTRUCTURE
     1 4DE         1 TEMP              0 ****  ****    0 ROOT
