@<TRIPOS>MOLECULE
molecule
   49    53     1     0     0
SMALL
bcc


@<TRIPOS>ATOM
      1 C01          0.0000     0.0000     0.0000 c3         1 4DF      -0.113100
      2 C05          1.5290     0.0000     0.0000 c3         1 4DF       0.241800
      3 N08          2.0180     0.0000     1.3820 nh         1 4DF      -0.693700
      4 C09          2.3520     1.2030     2.0030 ca         1 4DF       0.220600
      5 C10          1.3970     1.9090     2.7090 ca         1 4DF      -0.166000
      6 C12          1.7250     3.1070     3.3300 ca         1 4DF      -0.081000
      7 C14          3.0030     3.6120     3.2540 ca         1 4DF      -0.158000
      8 C16          3.9840     2.9190     2.5470 ca         1 4DF      -0.020200
      9 N17          5.3120     3.1540     2.2940 na         1 4DF      -0.049100
     10 N19          5.7990     2.0960     1.5170 nc         1 4DF      -0.500100
     11 C20          4.8440     1.2420     1.2880 cd         1 4DF       0.385800
     12 C22          3.6650     1.7010     1.9210 ca         1 4DF      -0.251900
     13 C23          2.1470    -1.1970     2.0710 ca         1 4DF       0.777200
     14 N24          1.7810    -2.3430     1.5070 nb         1 4DF      -0.851000
     15 C25          1.9040    -3.4880     2.1630 ca         1 4DF       0.966900
     16 N26          1.5130    -4.6650     1.5460 nu         1 4DF      -0.756300
     17 C28          1.7420    -5.8930     2.1750 ca         1 4DF       0.152600
     18 C29          0.8170    -6.9230     2.0640 ca         1 4DF      -0.116000
     19 C31          1.0410    -8.1320     2.6840 ca         1 4DF      -0.098000
     20 C33          2.1990    -8.3460     3.4310 ca         1 4DF      -0.075300
     21 C34          2.6200    -9.5820     4.1720 c3         1 4DF       0.237100
     22 N37          3.9050    -9.4710     4.8590 n7         1 4DF      -0.899100
     23 S39          4.4360    -7.9210     4.5340 sy         1 4DF       1.403200
     24 O40          5.5820    -8.0340     3.7000 o          1 4DF      -0.625300
     25 O41          4.4130    -7.1990     5.7570 o          1 4DF      -0.625300
     26 C42          3.1110    -7.3110     3.5290 ca         1 4DF      -0.258500
     27 C43          2.9020    -6.1010     2.9120 ca         1 4DF       0.015000
     28 N45          2.3910    -3.5350     3.3940 nb         1 4DF      -0.817000
     29 C46          2.7750    -2.4300     4.0170 ca         1 4DF       0.534200
     30 C48          2.6690    -1.2160     3.3670 ca         1 4DF      -0.332200
     31 Cl           3.1680     0.2540     4.1450 cl         1 4DF      -0.077400
     32 H1          -0.3610    -0.5290    -0.8740 hc         1 4DF       0.042700
     33 H2          -0.3610    -0.4920     0.8950 hc         1 4DF       0.042700
     34 H3          -0.3610     1.0210    -0.0210 hc         1 4DF       0.042700
     35 H4           1.8900     0.8840    -0.5110 h1         1 4DF       0.061700
     36 H5           1.8900    -0.8840    -0.5110 h1         1 4DF       0.061700
     37 H6           0.3860     1.5260     2.7790 ha         1 4DF       0.144000
     38 H7           0.9660     3.6510     3.8810 ha         1 4DF       0.138000
     39 H8           3.2460     4.5470     3.7430 ha         1 4DF       0.133000
     40 H9           5.8400     3.9430     2.6090 hn         1 4DF       0.334700
     41 H10          4.9370     0.3280     0.7140 h4         1 4DF       0.063800
     42 H11          1.1050    -4.6390     0.6320 hn         1 4DF       0.468800
     43 H12         -0.0870    -6.7740     1.4860 ha         1 4DF       0.139000
     44 H13          0.3110    -8.9260     2.5880 ha         1 4DF       0.136000
     45 H14          1.8590    -9.8130     4.9080 h1         1 4DF       0.060700
     46 H15          2.6810   -10.4000     3.4650 h1         1 4DF       0.060700
     47 H16          4.2910   -10.1130     5.5230 hn         1 4DF       0.486800
     48 H17          3.6760    -5.3430     2.9310 ha         1 4DF       0.162000
     49 H18          3.1740    -2.4790     5.0240 h4         1 4DF       0.047100
@<TRIPOS>BOND
     1    25    23 2
     2     7     6 ar
     3     7     8 ar
     4     9     8 1
     5     9    10 1
     6     6     5 ar
     7     8    12 ar
     8    10    11 2
     9     5     4 ar
    10    12    11 1
    11    12     4 ar
    12    22    23 1
    13    22    21 1
    14    23    24 2
    15    23    26 1
    16     4     3 1
    17     2     3 1
    18     2     1 1
    19     3    13 1
    20    21    20 1
    21    26    27 ar
    22    26    20 ar
    23    27    17 ar
    24    20    19 ar
    25    13    14 ar
    26    13    30 ar
    27    14    15 ar
    28    31    30 1
    29    17    16 1
    30    17    18 ar
    31    30    29 ar
    32    19    18 ar
    33    15    16 1
    34    15    28 ar
    35    29    28 ar
    36     1    32 1
    37     1    33 1
    38     1    34 1
    39     2    35 1
    40     2    36 1
    41     5    37 1
    42     6    38 1
    43     7    39 1
    44     9    40 1
    45    11    41 1
    46    16    42 1
    47    18    43 1
    48    19    44 1
    49    21    45 1
    50    21    46 1
    51    22    47 1
    52    27    48 1
    53    29    49 1
@<TRIPOS>SUBSTRUCTURE
     1 4DF         1 TEMP              0 ****  ****    0 ROOT
