@<TRIPOS>MOLECULE
4DH
   47    50     1     0     0
SMALL
bcc


@<TRIPOS>ATOM
      1 C1           0.0000     0.0000     0.0000 ca         1 4DH      -0.111000
      2 C2           1.3880     0.0000     0.0000 ca         1 4DH      -0.131000
      3 C3           2.0840     0.0000     1.1750 ca         1 4DH      -0.043000
      4 C4          -0.6990     0.0040     1.1880 ca         1 4DH      -0.085000
      5 N5          -0.3890     0.0170     3.7190 na         1 4DH       0.266700
      6 C6          -0.0090     0.0110     2.3920 ca         1 4DH      -0.288200
      7 C7           1.3970    -0.0010     2.3920 ca         1 4DH       0.075400
      8 N8           1.7920     0.0090     3.6910 nc         1 4DH      -0.540100
      9 C9           0.7480     0.0240     4.4660 cd         1 4DH       0.230800
     10 C10          0.7900     0.0340     5.9720 c3         1 4DH      -0.018700
     11 C11          1.6360    -1.1430     6.4660 c3         1 4DH      -0.095300
     12 C12          1.5780    -1.2060     7.9700 c          1 4DH       0.972600
     13 O13          2.5940    -1.1090     8.6180 o          1 4DH      -0.882800
     14 O14          0.3990    -1.3710     8.5910 o          1 4DH      -0.882800
     15 N15          3.0250    -0.9600     6.0370 ns         1 4DH      -0.087900
     16 C16          3.8320    -2.0290     5.8940 c          1 4DH       0.622700
     17 C17          5.1890    -1.8600     5.3500 cc         1 4DH      -0.349900
     18 O18          3.4400    -3.1350     6.2140 o          1 4DH      -0.690100
     19 N19          6.0840    -2.8510     5.0600 na         1 4DH       0.658400
     20 N20          7.1680    -2.3380     4.6010 nc         1 4DH      -0.669800
     21 C21          7.0820    -1.0260     4.5520 cd         1 4DH       0.332800
     22 C22          5.8060    -0.6670     5.0230 cd         1 4DH      -0.242300
     23 C23          5.8430    -4.2830     5.2480 c3         1 4DH      -0.015400
     24 C24          8.1360    -0.0940     4.0780 ca         1 4DH      -0.052500
     25 C25          9.3580    -0.5910     3.6300 ca         1 4DH      -0.096000
     26 C26         10.3350     0.2790     3.1900 ca         1 4DH      -0.119000
     27 C27         10.1020     1.6440     3.1950 ca         1 4DH      -0.123000
     28 C28          8.8900     2.1420     3.6400 ca         1 4DH      -0.119000
     29 C29          7.9050     1.2800     4.0760 ca         1 4DH      -0.096000
     30 H1          -0.5380    -0.0000    -0.9400 ha         1 4DH       0.094000
     31 H2           1.9240    -0.0030    -0.9410 ha         1 4DH       0.096000
     32 H3           3.1670     0.0000     1.1640 ha         1 4DH       0.108000
     33 H4          -1.7830     0.0040     1.1820 ha         1 4DH       0.093000
     34 H10         -0.2160    -0.0560     6.3630 hc         1 4DH       0.038700
     35 H10A         1.2290     0.9630     6.3150 hc         1 4DH       0.038700
     36 H11          1.2480    -2.0650     6.0510 h1         1 4DH       0.054700
     37 HN15         3.3880    -0.0370     5.9010 hn         1 4DH       0.168500
     38 H22          5.3980     0.3320     5.1180 ha         1 4DH       0.141000
     39 H23          6.7270    -4.8390     4.9580 h1         1 4DH       0.034367
     40 H23A         5.0050    -4.5920     4.6350 h1         1 4DH       0.034367
     41 H23B         5.6200    -4.4780     6.2900 h1         1 4DH       0.034367
     42 H25          9.5640    -1.6530     3.6850 ha         1 4DH       0.117000
     43 H26         11.2850    -0.1060     2.8420 ha         1 4DH       0.094500
     44 H27         10.8710     2.3240     2.8490 ha         1 4DH       0.091000
     45 H28          8.7140     3.2110     3.6450 ha         1 4DH       0.094500
     46 H29          7.0700     1.9100     4.3560 ha         1 4DH       0.117000
     47 HN5         -1.3280     0.0260     4.0670 hn         1 4DH       0.128700
@<TRIPOS>BOND
     1     1     2 ar  
     2     1     4 ar  
     3     1    30 1   
     4     2     3 ar  
     5     2    31 1   
     6     3     7 ar  
     7     3    32 1   
     8     4     6 ar  
     9     4    33 1   
    10     5     6 1   
    11     5     9 1   
    12     5    47 1   
    13     6     7 ar  
    14     7     8 1   
    15     8     9 2   
    16     9    10 1   
    17    10    11 1   
    18    10    34 1   
    19    10    35 1   
    20    11    12 1   
    21    11    15 1   
    22    11    36 1   
    23    12    13 1   
    24    12    14 1   
    25    15    16 1   
    26    15    37 1   
    27    16    17 1   
    28    16    18 2   
    29    17    19 1   
    30    17    22 2   
    31    19    20 1   
    32    19    23 1   
    33    20    21 2   
    34    21    22 1   
    35    21    24 1   
    36    22    38 1   
    37    23    39 1   
    38    23    40 1   
    39    23    41 1   
    40    24    25 ar  
    41    24    29 ar  
    42    25    26 ar  
    43    25    42 1   
    44    26    27 ar  
    45    26    43 1   
    46    27    28 ar  
    47    27    44 1   
    48    28    29 ar  
    49    28    45 1   
    50    29    46 1   
@<TRIPOS>SUBSTRUCTURE
     1 4DH         1 TEMP              0 ****  ****    0 ROOT
