@<TRIPOS>MOLECULE
molecule
   29    28     1     0     0
SMALL
bcc


@<TRIPOS>ATOM
      1 C1           0.0000     0.0000     0.0000 c2         1 4DI       0.466100
      2 S            1.7620     0.0000     0.0000 ss         1 4DI      -0.120300
      3 C2           2.0750     0.0000     1.7830 c3         1 4DI       0.016700
      4 C3           3.5840    -0.0000     2.0360 c3         1 4DI      -0.079400
      5 C4           3.8490    -0.0010     3.5430 c3         1 4DI      -0.072400
      6 C5           5.3580    -0.0010     3.7960 c3         1 4DI       0.136800
      7 N1           5.6110    -0.0010     5.2430 n3         1 4DI      -0.670600
      8 C6           7.0490    -0.2460     5.4190 c3         1 4DI       0.120600
      9 C7           5.3550     1.3660     5.7170 c3         1 4DI       0.120600
     10 N2          -0.6870     0.0000    -1.1920 nz         1 4DI      -0.786600
     11 N3          -0.6530     0.0010     1.1290 n2         1 4DI      -0.713100
     12 H21          1.6340    -0.8840     2.2270 h1         1 4DI       0.094700
     13 H22          1.6340     0.8850     2.2270 h1         1 4DI       0.094700
     14 H31          4.0250    -0.8850     1.5920 hc         1 4DI       0.060200
     15 H32          4.0250     0.8840     1.5920 hc         1 4DI       0.060200
     16 H41          3.4080    -0.8850     3.9870 hc         1 4DI       0.059200
     17 H42          3.4080     0.8840     3.9870 hc         1 4DI       0.059200
     18 H51          5.7990     0.8830     3.3520 h1         1 4DI       0.039700
     19 H52          5.7990    -0.8860     3.3520 h1         1 4DI       0.039700
     20 H61          7.3010    -1.2210     5.0200 h1         1 4DI       0.039367
     21 H62          7.2940    -0.2130     6.4740 h1         1 4DI       0.039367
     22 H63          7.6120     0.5160     4.8940 h1         1 4DI       0.039367
     23 H71          5.9350     1.5520     6.6130 h1         1 4DI       0.039367
     24 H72          5.6400     2.0740     4.9480 h1         1 4DI       0.039367
     25 H73          4.3010     1.4790     5.9400 h1         1 4DI       0.039367
     26 HN21        -0.0380    -0.0550    -1.9520 hn         1 4DI       0.467467
     27 HN22        -1.3040    -0.7880    -1.2230 hn         1 4DI       0.467467
     28 HN3         -1.6540     0.0010     1.1280 hn         1 4DI       0.434400
     29 H23         -1.2200     0.8440    -1.2700 hn         1 4DI       0.467467
@<TRIPOS>BOND
     1     1     2 1
     2     1    10 1
     3     1    11 2
     4     2     3 1
     5     3     4 1
     6     3    12 1
     7     3    13 1
     8     4     5 1
     9     4    14 1
    10     4    15 1
    11     5     6 1
    12     5    16 1
    13     5    17 1
    14     6     7 1
    15     6    18 1
    16     6    19 1
    17     7     8 1
    18     7     9 1
    19     8    20 1
    20     8    21 1
    21     8    22 1
    22     9    23 1
    23     9    24 1
    24     9    25 1
    25    10    26 1
    26    10    27 1
    27    11    28 1
    28    29    10 1
@<TRIPOS>SUBSTRUCTURE
     1 4DI         1 TEMP              0 ****  ****    0 ROOT
