@<TRIPOS>MOLECULE
molecule
   53    57     1     0     0
SMALL
bcc


@<TRIPOS>ATOM
      1 C01          0.0000     0.0000     0.0000 c3         1 4DJ       0.074600
      2 N05          1.4650     0.0000     0.0000 na         1 4DJ       0.051900
      3 N06          2.2770     0.0000     1.1390 nc         1 4DJ      -0.503100
      4 C07          3.5320     0.0010     0.7940 cd         1 4DJ       0.376800
      5 C09          3.5950     0.0020    -0.6630 ca         1 4DJ      -0.239900
      6 C10          4.6440     0.0030    -1.5900 ca         1 4DJ      -0.045000
      7 C12          4.3560     0.0040    -2.9410 ca         1 4DJ       0.112600
      8 N13          5.3990     0.0050    -3.8750 nu         1 4DJ      -0.751300
      9 C15          6.5880    -0.6460    -3.5870 ca         1 4DJ       0.969900
     10 N16          6.6840    -1.3520    -2.4690 nb         1 4DJ      -0.822000
     11 C17          7.8030    -1.9880    -2.1590 ca         1 4DJ       0.521200
     12 C19          8.8840    -1.9110    -3.0160 ca         1 4DJ      -0.500600
     13 C21          8.7530    -1.1600    -4.1860 ca         1 4DJ       0.768200
     14 N22          7.5980    -0.5520    -4.4380 nb         1 4DJ      -0.845000
     15 N23          9.8100    -1.0590    -5.0790 nh         1 4DJ      -0.704700
     16 C24         11.0390    -1.8210    -4.8470 c3         1 4DJ       0.244800
     17 C27         10.9280    -3.1870    -5.5290 c3         1 4DJ      -0.114400
     18 C30         12.2130    -3.9840    -5.2870 c3         1 4DJ       0.143400
     19 O33         12.1100    -5.2590    -5.9230 oh         1 4DJ      -0.606800
     20 C35          9.7010    -0.2330    -6.1970 ca         1 4DJ       0.225600
     21 C36         10.0990     1.0890    -6.1260 ca         1 4DJ      -0.164000
     22 C38         10.0000     1.9150    -7.2370 ca         1 4DJ      -0.082000
     23 C40          9.5030     1.4340    -8.4280 ca         1 4DJ      -0.158000
     24 C42          9.0960     0.1050    -8.5270 ca         1 4DJ      -0.018200
     25 N43          8.5730    -0.6520    -9.5440 na         1 4DJ      -0.052100
     26 N45          8.3520    -1.9450    -9.0550 nc         1 4DJ      -0.502100
     27 C46          8.7110    -2.0080    -7.8050 cd         1 4DJ       0.386800
     28 C48          9.1930    -0.7400    -7.4070 ca         1 4DJ      -0.245900
     29 C49          3.0310     0.0040    -3.3790 ca         1 4DJ      -0.111000
     30 C51          2.0000     0.0030    -2.4850 ca         1 4DJ      -0.142000
     31 C53          2.2620    -0.0040    -1.1170 ca         1 4DJ      -0.031200
     32 H02         -0.3610     0.8850    -0.5100 h1         1 4DJ       0.049700
     33 H04         -0.3610    -0.8840    -0.5110 h1         1 4DJ       0.049700
     34 H03         -0.3610    -0.0010     1.0210 h1         1 4DJ       0.049700
     35 H08          4.3790     0.0010     1.4700 h4         1 4DJ       0.061800
     36 H11          5.6630     0.1440    -1.2530 ha         1 4DJ       0.155000
     37 H14          5.2990     0.5030    -4.7370 hn         1 4DJ       0.465800
     38 H18          7.8710    -2.5620    -1.2430 h4         1 4DJ       0.027100
     39 H20          9.8120    -2.4200    -2.7850 ha         1 4DJ       0.143000
     40 H26         11.8820    -1.2800    -5.2590 h1         1 4DJ       0.057700
     41 H25         11.1830    -1.9590    -3.7830 h1         1 4DJ       0.057700
     42 H28         10.7830    -3.0490    -6.5930 hc         1 4DJ       0.067200
     43 H29         10.0850    -3.7280    -5.1170 hc         1 4DJ       0.067200
     44 H32         12.3570    -4.1220    -4.2220 h1         1 4DJ       0.018700
     45 H31         13.0560    -3.4420    -5.6990 h1         1 4DJ       0.018700
     46 H34         12.9010    -5.7490    -5.7740 ho         1 4DJ       0.404000
     47 H37         10.4920     1.4830    -5.1970 ha         1 4DJ       0.139000
     48 H39         10.3160     2.9480    -7.1670 ha         1 4DJ       0.135000
     49 H41          9.4300     2.0880    -9.2880 ha         1 4DJ       0.131000
     50 H44          8.3830    -0.3350   -10.4740 hn         1 4DJ       0.333700
     51 H47          8.6500    -2.8870    -7.1750 h4         1 4DJ       0.066800
     52 H50          2.8190     0.0050    -4.4410 ha         1 4DJ       0.133000
     53 H52          0.9760     0.0040    -2.8400 ha         1 4DJ       0.131000
@<TRIPOS>BOND
     1    22    23 ar
     2    22    21 ar
     3    19    18 1
     4    23    24 ar
     5    18    17 1
     6    21    20 ar
     7    16    17 1
     8    16    15 1
     9    24    25 1
    10    24    28 ar
    11    20    28 ar
    12    20    15 1
    13    25    26 1
    14    28    27 1
    15    15    13 1
    16     3     4 2
    17     3     2 1
    18     4     5 1
    19    26    27 2
    20     2     1 1
    21     2    31 1
    22     5    31 ar
    23     5     6 ar
    24    13    14 ar
    25    13    12 ar
    26    14     9 ar
    27    31    30 ar
    28     6     7 ar
    29    12    11 ar
    30    30    29 ar
    31     7    29 ar
    32     7     8 1
    33     9     8 1
    34     9    10 ar
    35    11    10 ar
    36     1    32 1
    37     1    33 1
    38     1    34 1
    39     4    35 1
    40     6    36 1
    41     8    37 1
    42    11    38 1
    43    12    39 1
    44    16    40 1
    45    16    41 1
    46    17    42 1
    47    17    43 1
    48    18    44 1
    49    18    45 1
    50    19    46 1
    51    21    47 1
    52    22    48 1
    53    23    49 1
    54    25    50 1
    55    27    51 1
    56    29    52 1
    57    30    53 1
@<TRIPOS>SUBSTRUCTURE
     1 4DJ         1 TEMP              0 ****  ****    0 ROOT
