@<TRIPOS>MOLECULE
4DJ
   53    57     1     0     0
SMALL
bcc


@<TRIPOS>ATOM
      1 C01          0.0000     0.0000     0.0000 c3         1 4DJ       0.038600
      2 N05          1.4650     0.0000     0.0000 na         1 4DJ       0.446900
      3 N06          2.2770     0.0000     1.1390 nc         1 4DJ      -0.624100
      4 C07          3.5320     0.0010     0.7940 cd         1 4DJ       0.434800
      5 C09          3.5950     0.0020    -0.6630 ca         1 4DJ      -0.248900
      6 C10          4.6440     0.0030    -1.5900 ca         1 4DJ      -0.009000
      7 C12          4.3560     0.0040    -2.9410 ca         1 4DJ      -0.050400
      8 N13          5.3990     0.0050    -3.8750 nu         1 4DJ      -0.282300
      9 C15          6.5880    -0.6460    -3.5870 ca         1 4DJ       0.737900
     10 N16          6.6840    -1.3520    -2.4690 nb         1 4DJ      -0.735000
     11 C17          7.8030    -1.9880    -2.1590 ca         1 4DJ       0.525200
     12 C19          8.8840    -1.9110    -3.0160 ca         1 4DJ      -0.499600
     13 C21          8.7530    -1.1600    -4.1860 ca         1 4DJ       0.592200
     14 N22          7.5980    -0.5520    -4.4380 nb         1 4DJ      -0.745000
     15 N23          9.8100    -1.0590    -5.0790 nh         1 4DJ      -0.310700
     16 C24         11.0390    -1.8210    -4.8470 c3         1 4DJ       0.163800
     17 C27         10.9280    -3.1870    -5.5290 c3         1 4DJ      -0.078400
     18 C30         12.2130    -3.9840    -5.2870 c3         1 4DJ       0.232400
     19 O33         12.1100    -5.2590    -5.9230 oh         1 4DJ      -0.589800
     20 C35          9.7010    -0.2330    -6.1970 ca         1 4DJ       0.097600
     21 C36         10.0990     1.0890    -6.1260 ca         1 4DJ      -0.130000
     22 C38         10.0000     1.9150    -7.2370 ca         1 4DJ      -0.057000
     23 C40          9.5030     1.4340    -8.4280 ca         1 4DJ      -0.111000
     24 C42          9.0960     0.1050    -8.5270 ca         1 4DJ      -0.185200
     25 N43          8.5730    -0.6520    -9.5440 na         1 4DJ       0.417900
     26 N45          8.3520    -1.9450    -9.0550 nc         1 4DJ      -0.636100
     27 C46          8.7110    -2.0080    -7.8050 cd         1 4DJ       0.436800
     28 C48          9.1930    -0.7400    -7.4070 ca         1 4DJ      -0.251900
     29 C49          3.0310     0.0040    -3.3790 ca         1 4DJ      -0.082000
     30 C51          2.0000     0.0030    -2.4850 ca         1 4DJ      -0.105000
     31 C53          2.2620    -0.0040    -1.1170 ca         1 4DJ      -0.179200
     32 H02         -0.3610     0.8850    -0.5100 h1         1 4DJ       0.015700
     33 H04         -0.3610    -0.8840    -0.5110 h1         1 4DJ       0.015700
     34 H03         -0.3610    -0.0010     1.0210 h1         1 4DJ       0.015700
     35 H08          4.3790     0.0010     1.4700 h4         1 4DJ       0.013800
     36 H11          5.6630     0.1440    -1.2530 ha         1 4DJ       0.129000
     37 H14          5.2990     0.5030    -4.7370 hn         1 4DJ       0.290800
     38 H18          7.8710    -2.5620    -1.2430 h4         1 4DJ      -0.022900
     39 H20          9.8120    -2.4200    -2.7850 ha         1 4DJ       0.135000
     40 H26         11.8820    -1.2800    -5.2590 h1         1 4DJ       0.030700
     41 H25         11.1830    -1.9590    -3.7830 h1         1 4DJ       0.030700
     42 H28         10.7830    -3.0490    -6.5930 hc         1 4DJ       0.038200
     43 H29         10.0850    -3.7280    -5.1170 hc         1 4DJ       0.038200
     44 H32         12.3570    -4.1220    -4.2220 h1         1 4DJ      -0.016800
     45 H31         13.0560    -3.4420    -5.6990 h1         1 4DJ      -0.016800
     46 H34         12.9010    -5.7490    -5.7740 ho         1 4DJ       0.391000
     47 H37         10.4920     1.4830    -5.1970 ha         1 4DJ       0.111000
     48 H39         10.3160     2.9480    -7.1670 ha         1 4DJ       0.103000
     49 H41          9.4300     2.0880    -9.2880 ha         1 4DJ       0.104000
     50 H44          8.3830    -0.3350   -10.4740 hn         1 4DJ       0.153700
     51 H47          8.6500    -2.8870    -7.1750 h4         1 4DJ       0.021800
     52 H50          2.8190     0.0050    -4.4410 ha         1 4DJ       0.104000
     53 H52          0.9760     0.0040    -2.8400 ha         1 4DJ       0.104000
@<TRIPOS>BOND
     1     1     2 1   
     2     1    32 1   
     3     1    33 1   
     4     1    34 1   
     5     2     3 1   
     6     2    31 1   
     7     3     4 2   
     8     4     5 1   
     9     4    35 1   
    10     5     6 ar  
    11     5    31 ar  
    12     6     7 ar  
    13     6    36 1   
    14     7     8 1   
    15     7    29 ar  
    16     8     9 1   
    17     8    37 1   
    18     9    10 ar  
    19     9    14 ar  
    20    10    11 ar  
    21    11    12 ar  
    22    11    38 1   
    23    12    13 ar  
    24    12    39 1   
    25    13    14 ar  
    26    13    15 1   
    27    15    16 1   
    28    15    20 1   
    29    16    17 1   
    30    16    40 1   
    31    16    41 1   
    32    17    18 1   
    33    17    42 1   
    34    17    43 1   
    35    18    19 1   
    36    18    44 1   
    37    18    45 1   
    38    19    46 1   
    39    20    21 ar  
    40    20    28 ar  
    41    21    22 ar  
    42    21    47 1   
    43    22    23 ar  
    44    22    48 1   
    45    23    24 ar  
    46    23    49 1   
    47    24    25 1   
    48    24    28 ar  
    49    25    26 1   
    50    25    50 1   
    51    26    27 2   
    52    27    28 1   
    53    27    51 1   
    54    29    30 ar  
    55    29    52 1   
    56    30    31 ar  
    57    30    53 1   
@<TRIPOS>SUBSTRUCTURE
     1 4DJ         1 TEMP              0 ****  ****    0 ROOT
