@<TRIPOS>MOLECULE
4DK
   56    60     1     0     0
SMALL
bcc


@<TRIPOS>ATOM
      1 C01        -0.0590   -1.5710   -0.0800 c3        1 4DK     -0.122400
      2 C05         1.1850   -0.7920    0.0380 cc        1 4DK      0.257300
      3 N06         1.8880   -0.6470    1.2530 nc        1 4DK     -0.670000
      4 C07         2.9370    0.1170    0.9800 cd        1 4DK      0.483300
      5 O09         2.9930    0.5040   -0.3620 os        1 4DK     -0.376800
      6 C10         1.8650   -0.0870   -0.9620 cd        1 4DK      0.211900
      7 C11         1.6660    0.1580   -2.3680 ca        1 4DK     -0.113500
      8 C12         0.8130   -0.6710   -3.1110 ca        1 4DK     -0.123000
      9 C14         0.6080   -0.4160   -4.4640 ca        1 4DK     -0.119000
     10 C16         1.2500    0.6450   -5.0940 ca        1 4DK     -0.156000
     11 C18         2.1190    1.4840   -4.3600 ca        1 4DK      0.127600
     12 N19         2.6980    2.6140   -4.9870 nh        1 4DK     -0.704300
     13 C21         4.1030    2.7560   -5.0930 ca        1 4DK      0.890900
     14 N22         4.9220    2.0930   -4.1890 nb        1 4DK     -0.753000
     15 C23         6.2340    2.3490   -4.3030 ca        1 4DK      0.479200
     16 C25         6.7910    3.2160   -5.2500 ca        1 4DK     -0.461600
     17 C27         5.8850    3.8630   -6.1490 ca        1 4DK      0.720200
     18 N28         4.5390    3.6120   -6.0880 nb        1 4DK     -0.793000
     19 N29         6.3450    4.8190   -7.0690 nh        1 4DK     -0.660700
     20 C30         7.7590    4.9200   -7.3640 c3        1 4DK      0.216800
     21 C33         8.3800    3.7360   -8.1040 c3        1 4DK     -0.123400
     22 C36         9.8450    4.0230   -8.3790 c3        1 4DK      0.136400
     23 O39        10.3880    2.8530   -8.9680 oh        1 4DK     -0.596800
     24 C41         5.4600    5.3070   -8.0780 ca        1 4DK      0.199600
     25 C42         5.0110    6.6350   -8.0250 ca        1 4DK     -0.142000
     26 C44         4.1610    7.1610   -9.0110 ca        1 4DK     -0.099000
     27 C46         3.7170    6.4080  -10.0870 ca        1 4DK     -0.138000
     28 C48         4.1460    5.0770  -10.1530 ca        1 4DK     -0.051200
     29 N49         3.9420    4.0610  -11.1090 na        1 4DK     -0.020100
     30 N51         4.5300    2.9140  -10.7310 nc        1 4DK     -0.511100
     31 C52         5.2160    3.1360   -9.5960 cd        1 4DK      0.354800
     32 C54         5.0210    4.5130   -9.1520 ca        1 4DK     -0.212900
     33 C55         2.3190    1.2320   -2.9900 ca        1 4DK     -0.078000
     34 H02        -0.5330   -1.7380    0.9190 hc        1 4DK      0.054033
     35 H04        -0.7880   -1.0280   -0.7340 hc        1 4DK      0.054033
     36 H03         0.1580   -2.5700   -0.5370 hc        1 4DK      0.054033
     37 H08         3.7440    0.4820    1.6170 h5        1 4DK      0.087100
     38 H13         0.3140   -1.5240   -2.6290 ha        1 4DK      0.140000
     39 H15        -0.0640   -1.0660   -5.0450 ha        1 4DK      0.136000
     40 H17         1.0730    0.8240   -6.1650 ha        1 4DK      0.135000
     41 H20         2.1950    2.9300   -5.7940 hn        1 4DK      0.436800
     42 H24         6.8810    1.8140   -3.5830 h4        1 4DK      0.027100
     43 H26         7.8720    3.3760   -5.2860 ha        1 4DK      0.154000
     44 H32         8.3050    5.0780   -6.3900 h1        1 4DK      0.060200
     45 H31         7.9000    5.8510   -7.9870 h1        1 4DK      0.060200
     46 H34         8.2910    2.7990   -7.4940 hc        1 4DK      0.068700
     47 H35         7.8470    3.5540   -9.0740 hc        1 4DK      0.068700
     48 H38        10.3910    4.2560   -7.4240 h1        1 4DK      0.021700
     49 H37         9.9540    4.8940   -9.0790 h1        1 4DK      0.021700
     50 H40        11.3040    3.0550   -9.1900 ho        1 4DK      0.402000
     51 H43         5.3190    7.2870   -7.1920 ha        1 4DK      0.146000
     52 H45         3.8350    8.2090   -8.9170 ha        1 4DK      0.137000
     53 H47         3.0550    6.8350  -10.8520 ha        1 4DK      0.141000
     54 H50         3.1870    4.0300  -11.7540 hn        1 4DK      0.316700
     55 H53         5.8160    2.3650   -9.1100 h4        1 4DK      0.059800
     56 H56         2.9900    1.8700   -2.3910 ha        1 4DK      0.170000
@<TRIPOS>BOND
     1    1    2 1   
     2    1   34 1   
     3    1   35 1   
     4    1   36 1   
     5    2    3 1   
     6    2    6 2   
     7    3    4 2   
     8    4    5 1   
     9    4   37 1   
    10    5    6 1   
    11    6    7 1   
    12    7    8 ar  
    13    7   33 ar  
    14    8    9 ar  
    15    8   38 1   
    16    9   10 ar  
    17    9   39 1   
    18   10   11 ar  
    19   10   40 1   
    20   11   12 1   
    21   11   33 ar  
    22   12   13 1   
    23   12   41 1   
    24   13   14 ar  
    25   13   18 ar  
    26   14   15 ar  
    27   15   16 ar  
    28   15   42 1   
    29   16   17 ar  
    30   16   43 1   
    31   17   18 ar  
    32   17   19 1   
    33   19   20 1   
    34   19   24 1   
    35   20   21 1   
    36   20   44 1   
    37   20   45 1   
    38   21   22 1   
    39   21   46 1   
    40   21   47 1   
    41   22   23 1   
    42   22   48 1   
    43   22   49 1   
    44   23   50 1   
    45   24   25 ar  
    46   24   32 ar  
    47   25   26 ar  
    48   25   51 1   
    49   26   27 ar  
    50   26   52 1   
    51   27   28 ar  
    52   27   53 1   
    53   28   29 1   
    54   28   32 ar  
    55   29   30 1   
    56   29   54 1   
    57   30   31 2   
    58   31   32 1   
    59   31   55 1   
    60   33   56 1   
@<TRIPOS>SUBSTRUCTURE
     1 4DK         1 TEMP              0 ****  ****    0 ROOT
