@<TRIPOS>MOLECULE
4DL
   50    54     1     0     0
SMALL
bcc


@<TRIPOS>ATOM
      1 O01          0.0000     0.0000     0.0000 oh         1 4DL      -0.583800
      2 C03          1.4300     0.0000     0.0000 c3         1 4DL       0.192400
      3 C06          1.9400     0.0000     1.4430 c3         1 4DL       0.140800
      4 N09          1.5520    -1.2520     2.0970 nh         1 4DL      -0.292700
      5 C10          2.3950    -2.3520     2.0440 ca         1 4DL       0.592200
      6 C11          3.6620    -2.2470     1.4650 ca         1 4DL      -0.499600
      7 C13          4.4670    -3.3680     1.4340 ca         1 4DL       0.527200
      8 N15          4.0180    -4.5040     1.9500 nb         1 4DL      -0.743000
      9 C16          2.8120    -4.5750     2.4940 ca         1 4DL       0.739900
     10 N17          2.3800    -5.7790     3.0230 nu         1 4DL      -0.289300
     11 C19          3.2530    -6.8690     3.0860 ca         1 4DL      -0.013400
     12 C20          4.5940    -6.6780     3.3980 ca         1 4DL      -0.055000
     13 C22          5.4550    -7.7500     3.4600 ca         1 4DL      -0.078000
     14 C24          5.0000    -9.0470     3.2120 ca         1 4DL      -0.076300
     15 C25          5.7760   -10.3310     3.2320 c3         1 4DL       0.255100
     16 N28          4.9880   -11.5220     2.9230 n7         1 4DL      -0.558100
     17 S30          3.4400   -10.9590     2.6550 sy         1 4DL       1.023200
     18 O31          2.6240   -11.4370     3.7160 o          1 4DL      -0.581300
     19 O32          3.1490   -11.1580     1.2780 o          1 4DL      -0.581300
     20 C33          3.6630    -9.2200     2.9030 ca         1 4DL      -0.104500
     21 C34          2.7910    -8.1570     2.8440 ca         1 4DL       0.009000
     22 N36          2.0110    -3.5210     2.5480 nb         1 4DL      -0.739000
     23 C37          0.3350    -1.3380     2.7740 ca         1 4DL       0.097600
     24 C38          0.2630    -1.0200     4.1170 ca         1 4DL      -0.135000
     25 C40         -0.9450    -1.1040     4.7950 ca         1 4DL      -0.061000
     26 C42         -2.0900    -1.5040     4.1450 ca         1 4DL      -0.111000
     27 C44         -2.0450    -1.8300     2.7910 ca         1 4DL      -0.187200
     28 N45         -2.9850    -2.2510     1.8860 na         1 4DL       0.414900
     29 N47         -2.3520    -2.4270     0.6500 nc         1 4DL      -0.651100
     30 C48         -1.0880    -2.1350     0.7580 cd         1 4DL       0.462800
     31 C50         -0.8270    -1.7430     2.0930 ca         1 4DL      -0.234900
     32 H1          -0.3140     0.6170    -0.6400 ho         1 4DL       0.391000
     33 H2           1.7910    -0.8840    -0.5110 h1         1 4DL       0.000700
     34 H3           1.7910     0.8850    -0.5110 h1         1 4DL       0.000700
     35 H4           3.0190     0.0890     1.4440 h1         1 4DL       0.037700
     36 H5           1.5070     0.8360     1.9790 h1         1 4DL       0.037700
     37 H6           4.0050    -1.3070     1.0500 ha         1 4DL       0.133000
     38 H7           5.4550    -3.3200     0.9920 h4         1 4DL      -0.022900
     39 H8           1.4510    -5.8610     3.3870 hn         1 4DL       0.296800
     40 H9           4.9620    -5.6810     3.6040 ha         1 4DL       0.130000
     41 H10          6.4970    -7.5860     3.7050 ha         1 4DL       0.104000
     42 H11          6.2080   -10.4540     4.2170 h1         1 4DL       0.017200
     43 H12          6.5780   -10.2560     2.5070 h1         1 4DL       0.017200
     44 H13          5.2720   -12.4760     3.0260 hn         1 4DL       0.374800
     45 H14          1.7350    -8.3310     2.6760 ha         1 4DL       0.111000
     46 H15          1.1550    -0.7030     4.6440 ha         1 4DL       0.109000
     47 H16         -0.9880    -0.8510     5.8480 ha         1 4DL       0.102000
     48 H17         -3.0270    -1.5650     4.6850 ha         1 4DL       0.103000
     49 H18         -3.9550    -2.4070     2.0770 hn         1 4DL       0.151700
     50 H19         -0.3580    -2.1810    -0.0410 h4         1 4DL       0.024800
@<TRIPOS>BOND
     1     1     2 1   
     2     1    32 1   
     3     2     3 1   
     4     2    33 1   
     5     2    34 1   
     6     3     4 1   
     7     3    35 1   
     8     3    36 1   
     9     4     5 1   
    10     4    23 1   
    11     5     6 ar  
    12     5    22 ar  
    13     6     7 ar  
    14     6    37 1   
    15     7     8 ar  
    16     7    38 1   
    17     8     9 ar  
    18     9    10 1   
    19     9    22 ar  
    20    10    11 1   
    21    10    39 1   
    22    11    12 ar  
    23    11    21 ar  
    24    12    13 ar  
    25    12    40 1   
    26    13    14 ar  
    27    13    41 1   
    28    14    15 1   
    29    14    20 ar  
    30    15    16 1   
    31    15    42 1   
    32    15    43 1   
    33    16    17 1   
    34    16    44 1   
    35    17    18 2   
    36    17    19 2   
    37    17    20 1   
    38    20    21 ar  
    39    21    45 1   
    40    23    24 ar  
    41    23    31 ar  
    42    24    25 ar  
    43    24    46 1   
    44    25    26 ar  
    45    25    47 1   
    46    26    27 ar  
    47    26    48 1   
    48    27    28 1   
    49    27    31 ar  
    50    28    29 1   
    51    28    49 1   
    52    29    30 2   
    53    30    31 1   
    54    30    50 1   
@<TRIPOS>SUBSTRUCTURE
     1 4DL         1 TEMP              0 ****  ****    0 ROOT
