@<TRIPOS>MOLECULE
4DM
   46    49     1     0     0
SMALL
bcc


@<TRIPOS>ATOM
      1 C4           0.0000     0.0000     0.0000 c3         1 4DM      -0.043200
      2 C3           1.5000     0.0000     0.0000 c2         1 4DM       0.283900
      3 O3           2.1440     0.0010    -1.1760 oh         1 4DM      -0.525100
      4 C2           2.2390     0.0000     1.1580 ce         1 4DM      -0.436400
      5 C1           1.5640    -0.0120     2.4590 c          1 4DM       0.636300
      6 C5          -2.0680    -0.3450     1.3520 c3         1 4DM       0.033900
      7 C6          -3.6510     1.4750     0.8470 ca         1 4DM      -0.103300
      8 O12          0.7030     2.5440     2.3620 o          1 4DM      -0.571100
      9 C12         -0.1710     1.7180     2.1990 c          1 4DM       0.660700
     10 C1B         -1.5040     2.1060     1.7170 ca         1 4DM      -0.276600
     11 C11         -1.8480     3.4600     1.6740 ca         1 4DM       0.272100
     12 O11         -0.9640     4.4020     2.0780 oh         1 4DM      -0.478100
     13 C1A         -3.1210     3.8340     1.2070 ca         1 4DM      -0.132000
     14 C10         -3.5080     5.1870     1.1500 ca         1 4DM       0.216100
     15 O10         -2.6540     6.1620     1.5540 oh         1 4DM      -0.460100
     16 C9          -4.7630     5.5130     0.6800 ca         1 4DM      -0.242000
     17 C8          -5.6450     4.5210     0.2650 ca         1 4DM      -0.044000
     18 C7          -5.2950     3.2050     0.3130 ca         1 4DM      -0.168000
     19 C61         -4.0280     2.8310     0.7860 ca         1 4DM       0.088000
     20 C62         -4.6190     0.4100     0.4030 c3         1 4DM       0.052200
     21 C51         -2.4200     1.1190     1.3030 ca         1 4DM      -0.039300
     22 C1C          0.0720     0.2500     2.4820 c3         1 4DM       0.003800
     23 O1           2.1780    -0.2260     3.4830 o          1 4DM      -0.518100
     24 O1C         -0.4930    -0.1270     3.7400 oh         1 4DM      -0.530800
     25 C41         -0.5530    -0.5420     1.3180 c3         1 4DM      -0.055700
     26 C21          3.7080     0.0120     1.0920 c          1 4DM       0.399300
     27 O21          4.3340    -1.0180     1.2580 o          1 4DM      -0.401100
     28 N21          4.3630     1.1650     0.8480 nz         1 4DM       0.203600
     29 H4          -0.3540     1.0140    -0.1410 hc         1 4DM       0.070200
     30 H4A         -0.3530    -0.6210    -0.8140 hc         1 4DM       0.070200
     31 HO3          1.9250    -0.7810    -1.6550 ho         1 4DM       0.461000
     32 H5          -2.4610    -0.7740     2.2660 hc         1 4DM       0.047200
     33 H5A         -2.5100    -0.8450     0.4990 hc         1 4DM       0.047200
     34 HO11        -1.0480     4.5340     3.0080 ho         1 4DM       0.427000
     35 HO10        -3.0620     7.0040     1.4400 ho         1 4DM       0.413000
     36 H9          -5.1930     6.5020     0.5780 ha         1 4DM       0.126000
     37 H8          -6.6110     4.8620    -0.0870 ha         1 4DM       0.109000
     38 H7          -6.1850     2.7710    -0.1290 ha         1 4DM       0.137000
     39 H62         -5.6230     0.8170     0.3930 hc         1 4DM       0.017700
     40 H62A        -4.3560     0.0740    -0.5920 hc         1 4DM       0.017700
     41 H62B        -4.5760    -0.4260     1.0900 hc         1 4DM       0.017700
     42 HO1C         0.0110    -0.8310     4.1130 ho         1 4DM       0.417000
     43 H41         -0.3140    -1.5940     1.4150 hc         1 4DM       0.046700
     44 HN21         4.7070     1.5410     1.7080 hn         1 4DM       0.249133
     45 HN2A         5.1300     0.9880     0.2300 hn         1 4DM       0.249133
     46 H213         3.7370     1.8200     0.4230 hn         1 4DM       0.249133
@<TRIPOS>BOND
     1     1     2 1   
     2     1    25 1   
     3     1    29 1   
     4     1    30 1   
     5     2     3 1   
     6     2     4 2   
     7     3    31 1   
     8     4     5 1   
     9     4    26 1   
    10     5    22 1   
    11     5    23 2   
    12     6    21 1   
    13     6    25 1   
    14     6    32 1   
    15     6    33 1   
    16     7    19 ar  
    17     7    20 1   
    18     7    21 ar  
    19     8     9 2   
    20     9    10 1   
    21     9    22 1   
    22    10    11 ar  
    23    10    21 ar  
    24    11    12 1   
    25    11    13 ar  
    26    12    34 1   
    27    13    14 ar  
    28    13    19 ar  
    29    14    15 1   
    30    14    16 ar  
    31    15    35 1   
    32    16    17 ar  
    33    16    36 1   
    34    17    18 ar  
    35    17    37 1   
    36    18    19 ar  
    37    18    38 1   
    38    20    39 1   
    39    20    40 1   
    40    20    41 1   
    41    22    24 1   
    42    22    25 1   
    43    24    42 1   
    44    25    43 1   
    45    26    27 2   
    46    26    28 1   
    47    28    44 1   
    48    28    45 1   
    49    28    46 1   
@<TRIPOS>SUBSTRUCTURE
     1 4DM         1 TEMP              0 ****  ****    0 ROOT
