@<TRIPOS>MOLECULE
molecule
   46    49     1     0     0
SMALL
bcc


@<TRIPOS>ATOM
      1 C4           0.0000     0.0000     0.0000 c3         1 4DM      -0.095200
      2 C3           1.5000     0.0000     0.0000 c2         1 4DM       0.243900
      3 O3           2.1440     0.0010    -1.1760 oh         1 4DM      -0.535100
      4 C2           2.2390     0.0000     1.1580 ce         1 4DM      -0.386400
      5 C1           1.5640    -0.0120     2.4590 c          1 4DM       0.579300
      6 C5          -2.0680    -0.3450     1.3520 c3         1 4DM      -0.024100
      7 C6          -3.6510     1.4750     0.8470 ca         1 4DM      -0.087300
      8 O12          0.7030     2.5440     2.3620 o          1 4DM      -0.524100
      9 C12         -0.1710     1.7180     2.1990 c          1 4DM       0.608700
     10 C1B         -1.5040     2.1060     1.7170 ca         1 4DM      -0.245600
     11 C11         -1.8480     3.4600     1.6740 ca         1 4DM       0.239100
     12 O11         -0.9640     4.4020     2.0780 oh         1 4DM      -0.494100
     13 C1A         -3.1210     3.8340     1.2070 ca         1 4DM      -0.107000
     14 C10         -3.5080     5.1870     1.1500 ca         1 4DM       0.189100
     15 O10         -2.6540     6.1620     1.5540 oh         1 4DM      -0.478100
     16 C9          -4.7630     5.5130     0.6800 ca         1 4DM      -0.252000
     17 C8          -5.6450     4.5210     0.2650 ca         1 4DM      -0.075000
     18 C7          -5.2950     3.2050     0.3130 ca         1 4DM      -0.182000
     19 C61         -4.0280     2.8310     0.7860 ca         1 4DM       0.068000
     20 C62         -4.6190     0.4100     0.4030 c3         1 4DM      -0.049800
     21 C51         -2.4200     1.1190     1.3030 ca         1 4DM      -0.043300
     22 C1C          0.0720     0.2500     2.4820 c3         1 4DM      -0.010200
     23 O1           2.1780    -0.2260     3.4830 o          1 4DM      -0.481100
     24 O1C         -0.4930    -0.1270     3.7400 oh         1 4DM      -0.541800
     25 C41         -0.5530    -0.5420     1.3180 c3         1 4DM      -0.081700
     26 C21          3.7080     0.0120     1.0920 c          1 4DM       0.543300
     27 O21          4.3340    -1.0180     1.2580 o          1 4DM      -0.389100
     28 N21          4.3630     1.1650     0.8480 nz         1 4DM      -0.677400
     29 H4          -0.3540     1.0140    -0.1410 hc         1 4DM       0.105200
     30 H4A         -0.3530    -0.6210    -0.8140 hc         1 4DM       0.105200
     31 HO3          1.9250    -0.7810    -1.6550 ho         1 4DM       0.478000
     32 H5          -2.4610    -0.7740     2.2660 hc         1 4DM       0.079700
     33 H5A         -2.5100    -0.8450     0.4990 hc         1 4DM       0.079700
     34 HO11        -1.0480     4.5340     3.0080 ho         1 4DM       0.447000
     35 HO10        -3.0620     7.0040     1.4400 ho         1 4DM       0.434000
     36 H9          -5.1930     6.5020     0.5780 ha         1 4DM       0.149000
     37 H8          -6.6110     4.8620    -0.0870 ha         1 4DM       0.143000
     38 H7          -6.1850     2.7710    -0.1290 ha         1 4DM       0.159000
     39 H62         -5.6230     0.8170     0.3930 hc         1 4DM       0.052367
     40 H62A        -4.3560     0.0740    -0.5920 hc         1 4DM       0.052367
     41 H62B        -4.5760    -0.4260     1.0900 hc         1 4DM       0.052367
     42 HO1C         0.0110    -0.8310     4.1130 ho         1 4DM       0.431000
     43 H41         -0.3140    -1.5940     1.4150 hc         1 4DM       0.076700
     44 HN21         4.7070     1.5410     1.7080 hn         1 4DM       0.481467
     45 HN2A         5.1300     0.9880     0.2300 hn         1 4DM       0.481467
     46 H213         3.7370     1.8200     0.4230 hn         1 4DM       0.481467
@<TRIPOS>BOND
     1     1     2 1   
     2     1    25 1   
     3     2     3 1   
     4     2     4 2   
     5     4     5 1   
     6     4    26 1   
     7     5    22 1   
     8     5    23 2   
     9     6    21 1   
    10     6    25 1   
    11     7    19 ar  
    12     7    20 1   
    13     7    21 ar  
    14     8     9 2   
    15     9    10 1   
    16     9    22 1   
    17    10    11 ar  
    18    10    21 ar  
    19    11    12 1   
    20    11    13 ar  
    21    13    14 ar  
    22    13    19 ar  
    23    14    15 1   
    24    14    16 ar  
    25    16    17 ar  
    26    17    18 ar  
    27    18    19 ar  
    28    22    24 1   
    29    22    25 1   
    30    26    27 2   
    31    26    28 1   
    32     1    29 1   
    33     1    30 1   
    34     3    31 1   
    35     6    32 1   
    36     6    33 1   
    37    12    34 1   
    38    15    35 1   
    39    16    36 1   
    40    17    37 1   
    41    18    38 1   
    42    20    39 1   
    43    20    40 1   
    44    20    41 1   
    45    24    42 1   
    46    25    43 1   
    47    28    44 1   
    48    28    45 1   
    49    46    28 1   
@<TRIPOS>SUBSTRUCTURE
     1 4DM         1 TEMP              0 ****  ****    0 ROOT
