@<TRIPOS>MOLECULE
molecule
   53    57     1     0     0
SMALL
bcc


@<TRIPOS>ATOM
      1 O3           0.0000     0.0000     0.0000 o          1 4DN      -0.626800
      2 S2           1.4210     0.0000     0.0000 sy         1 4DN       1.404200
      3 O1           2.2160    -0.9540    -0.6900 o          1 4DN      -0.626800
      4 C6           1.9480     0.0000     1.6910 ca         1 4DN      -0.257500
      5 C10          1.8540    -0.9420     2.6890 ca         1 4DN       0.011000
      6 C11          2.3660    -0.6640     3.9510 ca         1 4DN       0.158600
      7 C9           2.9660     0.5660     4.1830 ca         1 4DN      -0.119000
      8 C8           3.0530     1.5010     3.1750 ca         1 4DN      -0.098000
      9 C7           2.5420     1.2300     1.9050 ca         1 4DN      -0.079300
     10 C5           2.5420     2.1110     0.6890 c3         1 4DN       0.237100
     11 N4           1.9190     1.5140    -0.4970 n7         1 4DN      -0.900100
     12 N12          2.2760    -1.6120     4.9750 nu         1 4DN      -0.757300
     13 C13          1.1440    -2.4020     5.0920 ca         1 4DN       0.966900
     14 N17          1.1210    -3.3710     5.9960 nb         1 4DN      -0.841000
     15 C18          0.0500    -4.1440     6.1310 ca         1 4DN       0.769200
     16 C16         -1.0560    -3.9230     5.3070 ca         1 4DN      -0.493600
     17 C15         -0.9900    -2.9020     4.3780 ca         1 4DN       0.525200
     18 N14          0.1080    -2.1660     4.3000 nb         1 4DN      -0.826000
     19 N19          0.0290    -5.1560     7.0780 nh         1 4DN      -0.702700
     20 C20         -1.1110    -6.0730     7.1470 c3         1 4DN       0.242800
     21 C21         -0.8540    -7.2770     6.2370 c3         1 4DN      -0.114400
     22 C32         -2.0450    -8.2330     6.3090 c3         1 4DN       0.143400
     23 O31         -1.8050    -9.3580     5.4600 oh         1 4DN      -0.606800
     24 C22          1.0960    -5.3040     7.9660 ca         1 4DN       0.222600
     25 C30          1.0860    -4.6440     9.1800 ca         1 4DN      -0.164000
     26 C29          2.1440    -4.7870    10.0670 ca         1 4DN      -0.082000
     27 C28          3.2200    -5.5860     9.7540 ca         1 4DN      -0.157000
     28 C27          3.2560    -6.2620     8.5360 ca         1 4DN      -0.018200
     29 C23          2.1860    -6.1280     7.6330 ca         1 4DN      -0.245900
     30 N26          4.1610    -7.1070     7.9480 na         1 4DN      -0.051100
     31 N25          3.6570    -7.4840     6.6980 nc         1 4DN      -0.500100
     32 C24          2.5000    -6.9180     6.5020 cd         1 4DN       0.385800
     33 H1           1.3820    -1.8970     2.4910 ha         1 4DN       0.165000
     34 H2           3.3690     0.7930     5.1630 ha         1 4DN       0.139000
     35 H3           3.5240     2.4570     3.3710 ha         1 4DN       0.135000
     36 H4           2.0110     3.0240     0.9300 h1         1 4DN       0.061200
     37 H5           3.5690     2.3580     0.4470 h1         1 4DN       0.061200
     38 H6           1.6710     1.9800    -1.3470 hn         1 4DN       0.485800
     39 H7           3.0350    -1.7290     5.6170 hn         1 4DN       0.470800
     40 H8          -1.9440    -4.5380     5.3930 ha         1 4DN       0.146000
     41 H9          -1.8310    -2.7020     3.7240 h4         1 4DN       0.034100
     42 H10         -2.0080    -5.5590     6.8210 h1         1 4DN       0.058200
     43 H11         -1.2410    -6.4130     8.1670 h1         1 4DN       0.058200
     44 H12         -0.7240    -6.9370     5.2170 hc         1 4DN       0.067200
     45 H13          0.0420    -7.7910     6.5640 hc         1 4DN       0.067200
     46 H14         -2.9410    -7.7190     5.9820 h1         1 4DN       0.019200
     47 H15         -2.1760    -8.5730     7.3290 h1         1 4DN       0.019200
     48 H16         -2.5400    -9.9470     5.5040 ho         1 4DN       0.405000
     49 H17          0.2460    -4.0120     9.4420 ha         1 4DN       0.140000
     50 H18          2.1220    -4.2640    11.0160 ha         1 4DN       0.136000
     51 H19          4.0390    -5.6890    10.4550 ha         1 4DN       0.131000
     52 H20          5.0320    -7.4020     8.3430 hn         1 4DN       0.333700
     53 H21          1.8820    -7.0320     5.6190 h4         1 4DN       0.067800
@<TRIPOS>BOND
     1    27    26 ar  
     2    27    28 ar  
     3    26    25 ar  
     4    28    30 1   
     5    28    29 ar  
     6    30    31 1   
     7    25    24 ar  
     8    29    24 ar  
     9    29    32 1   
    10    31    32 2   
    11    24    19 1   
    12    16    17 ar  
    13    16    15 ar  
    14    17    18 ar  
    15    19    15 1   
    16    19    20 1   
    17    15    14 ar  
    18    20    21 1   
    19    18    13 ar  
    20    14    13 ar  
    21    21    22 1   
    22    23    22 1   
    23    13    12 1   
    24    12     6 1   
    25     6     5 ar  
    26     6     7 ar  
    27     5     4 ar  
    28     1     2 2   
    29     7     8 ar  
    30     4     2 1   
    31     4     9 ar  
    32     2     3 2   
    33     2    11 1   
    34     8     9 ar  
    35     9    10 1   
    36    11    10 1   
    37     5    33 1   
    38     7    34 1   
    39     8    35 1   
    40    10    36 1   
    41    10    37 1   
    42    11    38 1   
    43    12    39 1   
    44    16    40 1   
    45    17    41 1   
    46    20    42 1   
    47    20    43 1   
    48    21    44 1   
    49    21    45 1   
    50    22    46 1   
    51    22    47 1   
    52    23    48 1   
    53    25    49 1   
    54    26    50 1   
    55    27    51 1   
    56    30    52 1   
    57    32    53 1   
@<TRIPOS>SUBSTRUCTURE
     1 4DN         1 TEMP              0 ****  ****    0 ROOT
