@<TRIPOS>MOLECULE
4DN
   53    57     1     0     0
SMALL
bcc


@<TRIPOS>ATOM
      1 O3           0.0000     0.0000     0.0000 o          1 4DN      -0.579800
      2 S2           1.4210     0.0000     0.0000 sy         1 4DN       1.024200
      3 O1           2.2160    -0.9540    -0.6900 o          1 4DN      -0.579800
      4 C6           1.9480     0.0000     1.6910 ca         1 4DN      -0.101500
      5 C10          1.8540    -0.9420     2.6890 ca         1 4DN       0.042000
      6 C11          2.3660    -0.6640     3.9510 ca         1 4DN      -0.011400
      7 C9           2.9660     0.5660     4.1830 ca         1 4DN      -0.092000
      8 C8           3.0530     1.5010     3.1750 ca         1 4DN      -0.076000
      9 C7           2.5420     1.2300     1.9050 ca         1 4DN      -0.079300
     10 C5           2.5420     2.1110     0.6890 c3         1 4DN       0.256100
     11 N4           1.9190     1.5140    -0.4970 n7         1 4DN      -0.560100
     12 N12          2.2760    -1.6120     4.9750 nu         1 4DN      -0.292300
     13 C13          1.1440    -2.4020     5.0920 ca         1 4DN       0.735900
     14 N17          1.1210    -3.3710     5.9960 nb         1 4DN      -0.740000
     15 C18          0.0500    -4.1440     6.1310 ca         1 4DN       0.591200
     16 C16         -1.0560    -3.9230     5.3070 ca         1 4DN      -0.491600
     17 C15         -0.9900    -2.9020     4.3780 ca         1 4DN       0.530200
     18 N14          0.1080    -2.1660     4.3000 nb         1 4DN      -0.735000
     19 N19          0.0290    -5.1560     7.0780 nh         1 4DN      -0.307700
     20 C20         -1.1110    -6.0730     7.1470 c3         1 4DN       0.162800
     21 C21         -0.8540    -7.2770     6.2370 c3         1 4DN      -0.078400
     22 C32         -2.0450    -8.2330     6.3090 c3         1 4DN       0.232400
     23 O31         -1.8050    -9.3580     5.4600 oh         1 4DN      -0.589800
     24 C22          1.0960    -5.3040     7.9660 ca         1 4DN       0.094600
     25 C30          1.0860    -4.6440     9.1800 ca         1 4DN      -0.130000
     26 C29          2.1440    -4.7870    10.0670 ca         1 4DN      -0.058000
     27 C28          3.2200    -5.5860     9.7540 ca         1 4DN      -0.110000
     28 C27          3.2560    -6.2620     8.5360 ca         1 4DN      -0.185200
     29 C23          2.1860    -6.1280     7.6330 ca         1 4DN      -0.252900
     30 N26          4.1610    -7.1070     7.9480 na         1 4DN       0.420900
     31 N25          3.6570    -7.4840     6.6980 nc         1 4DN      -0.634100
     32 C24          2.5000    -6.9180     6.5020 cd         1 4DN       0.435800
     33 H1           1.3820    -1.8970     2.4910 ha         1 4DN       0.135000
     34 H2           3.3690     0.7930     5.1630 ha         1 4DN       0.108000
     35 H3           3.5240     2.4570     3.3710 ha         1 4DN       0.104000
     36 H4           2.0110     3.0240     0.9300 h1         1 4DN       0.016700
     37 H5           3.5690     2.3580     0.4470 h1         1 4DN       0.016700
     38 H6           1.6710     1.9800    -1.3470 hn         1 4DN       0.373800
     39 H7           3.0350    -1.7290     5.6170 hn         1 4DN       0.294800
     40 H8          -1.9440    -4.5380     5.3930 ha         1 4DN       0.137000
     41 H9          -1.8310    -2.7020     3.7240 h4         1 4DN      -0.016900
     42 H10         -2.0080    -5.5590     6.8210 h1         1 4DN       0.031200
     43 H11         -1.2410    -6.4130     8.1670 h1         1 4DN       0.031200
     44 H12         -0.7240    -6.9370     5.2170 hc         1 4DN       0.038200
     45 H13          0.0420    -7.7910     6.5640 hc         1 4DN       0.038200
     46 H14         -2.9410    -7.7190     5.9820 h1         1 4DN      -0.016800
     47 H15         -2.1760    -8.5730     7.3290 h1         1 4DN      -0.016800
     48 H16         -2.5400    -9.9470     5.5040 ho         1 4DN       0.391000
     49 H17          0.2460    -4.0120     9.4420 ha         1 4DN       0.112000
     50 H18          2.1220    -4.2640    11.0160 ha         1 4DN       0.103000
     51 H19          4.0390    -5.6890    10.4550 ha         1 4DN       0.104000
     52 H20          5.0320    -7.4020     8.3430 hn         1 4DN       0.153700
     53 H21          1.8820    -7.0320     5.6190 h4         1 4DN       0.021800
@<TRIPOS>BOND
     1     1     2 2   
     2     2     3 2   
     3     2     4 1   
     4     2    11 1   
     5     4     5 ar  
     6     4     9 ar  
     7     5     6 ar  
     8     5    33 1   
     9     6     7 ar  
    10     6    12 1   
    11     7     8 ar  
    12     7    34 1   
    13     8     9 ar  
    14     8    35 1   
    15     9    10 1   
    16    10    11 1   
    17    10    36 1   
    18    10    37 1   
    19    11    38 1   
    20    12    13 1   
    21    12    39 1   
    22    13    14 ar  
    23    13    18 ar  
    24    14    15 ar  
    25    15    16 ar  
    26    15    19 1   
    27    16    17 ar  
    28    16    40 1   
    29    17    18 ar  
    30    17    41 1   
    31    19    20 1   
    32    19    24 1   
    33    20    21 1   
    34    20    42 1   
    35    20    43 1   
    36    21    22 1   
    37    21    44 1   
    38    21    45 1   
    39    22    23 1   
    40    22    46 1   
    41    22    47 1   
    42    23    48 1   
    43    24    25 ar  
    44    24    29 ar  
    45    25    26 ar  
    46    25    49 1   
    47    26    27 ar  
    48    26    50 1   
    49    27    28 ar  
    50    27    51 1   
    51    28    29 ar  
    52    28    30 1   
    53    29    32 1   
    54    30    31 1   
    55    30    52 1   
    56    31    32 2   
    57    32    53 1   
@<TRIPOS>SUBSTRUCTURE
     1 4DN         1 TEMP              0 ****  ****    0 ROOT
