@<TRIPOS>MOLECULE
4DO
   46    50     1     0     0
SMALL
bcc


@<TRIPOS>ATOM
      1 O2           0.0000     0.0000     0.0000 o          1 4DO      -0.580800
      2 S1           1.4210     0.0000     0.0000 sy         1 4DO       1.024200
      3 O1           2.2150     0.9530    -0.6920 o          1 4DO      -0.580800
      4 N6           1.9180     0.0000     1.5940 n7         1 4DO      -0.560100
      5 C15          2.5410    -1.3060     1.7960 c3         1 4DO       0.255100
      6 C14          2.5430    -2.1920     0.5840 ca         1 4DO      -0.076300
      7 C16          1.9480    -1.6070    -0.5260 ca         1 4DO      -0.104500
      8 C17          1.8550    -2.2610    -1.7330 ca         1 4DO       0.007000
      9 C13          3.0550    -3.4830     0.4490 ca         1 4DO      -0.077000
     10 C12          2.9690    -4.1530    -0.7510 ca         1 4DO      -0.055000
     11 C11          2.3670    -3.5470    -1.8630 ca         1 4DO      -0.018400
     12 N5           2.2790    -4.2230    -3.0840 nu         1 4DO      -0.284300
     13 C10          3.3140    -5.0490    -3.4940 ca         1 4DO       0.731900
     14 N7           4.4240    -5.0990    -2.7740 nb         1 4DO      -0.723000
     15 C18          5.4360    -5.8780    -3.1340 ca         1 4DO       0.497200
     16 C19          5.3240    -6.6460    -4.2770 ca         1 4DO      -0.253700
     17 F2           6.3350    -7.4510    -4.6710 f          1 4DO      -0.116900
     18 N4           3.1650    -5.7730    -4.5940 nb         1 4DO      -0.742000
     19 C9           4.1400    -6.5720    -5.0170 ca         1 4DO       0.569200
     20 N1           3.9820    -7.3240    -6.1710 nh         1 4DO      -0.290700
     21 C1           2.7880    -7.1510    -7.0020 c3         1 4DO       0.201100
     22 C2           4.9610    -8.2460    -6.5430 ca         1 4DO       0.066600
     23 C3           4.8890    -9.5520    -6.0990 ca         1 4DO      -0.121000
     24 C4           5.8610   -10.4740    -6.4660 ca         1 4DO      -0.057000
     25 C5           6.9110   -10.1040    -7.2750 ca         1 4DO      -0.100000
     26 C6           7.0070    -8.7920    -7.7360 ca         1 4DO      -0.182200
     27 C8           6.0250    -7.8530    -7.3750 ca         1 4DO      -0.251900
     28 N2           7.9070    -8.1320    -8.5320 na         1 4DO       0.423900
     29 N3           7.4850    -6.8030    -8.6560 nc         1 4DO      -0.631100
     30 C7           6.3810    -6.6280    -7.9900 cd         1 4DO       0.437800
     31 H13          1.6830     0.6710     2.2980 hn         1 4DO       0.375800
     32 H1_5         3.5710    -1.1400     2.0860 h1         1 4DO       0.020200
     33 H1_4         1.9920    -1.8170     2.5780 h1         1 4DO       0.020200
     34 H12          1.3860    -1.7740    -2.5800 ha         1 4DO       0.111000
     35 H16          3.5220    -3.9660     1.2990 ha         1 4DO       0.106000
     36 H17          3.3720    -5.1540    -0.8370 ha         1 4DO       0.132000
     37 H11          1.4690    -4.1120    -3.6610 hn         1 4DO       0.295800
     38 H10          6.3400    -5.9120    -2.5370 h4         1 4DO      -0.007900
     39 H__9         1.9080    -7.4160    -6.4280 h1         1 4DO       0.014700
     40 H__8         2.8570    -7.7920    -7.8720 h1         1 4DO       0.014700
     41 H__7         2.7160    -6.1180    -7.3190 h1         1 4DO       0.014700
     42 H6           4.0690    -9.8600    -5.4620 ha         1 4DO       0.113000
     43 H5           5.7920   -11.4950    -6.1110 ha         1 4DO       0.105000
     44 H4           7.6620   -10.8320    -7.5540 ha         1 4DO       0.105000
     45 H3           8.7270    -8.5290    -8.9470 hn         1 4DO       0.155700
     46 H1           5.8310    -5.6980    -7.9100 h4         1 4DO       0.015800
@<TRIPOS>BOND
     1     1     2 2   
     2     2     3 2   
     3     2     4 1   
     4     2     7 1   
     5     4     5 1   
     6     4    31 1   
     7     5     6 1   
     8     5    32 1   
     9     5    33 1   
    10     6     7 ar  
    11     6     9 ar  
    12     7     8 ar  
    13     8    11 ar  
    14     8    34 1   
    15     9    10 ar  
    16     9    35 1   
    17    10    11 ar  
    18    10    36 1   
    19    11    12 1   
    20    12    13 1   
    21    12    37 1   
    22    13    14 ar  
    23    13    18 ar  
    24    14    15 ar  
    25    15    16 ar  
    26    15    38 1   
    27    16    17 1   
    28    16    19 ar  
    29    18    19 ar  
    30    19    20 1   
    31    20    21 1   
    32    20    22 1   
    33    21    39 1   
    34    21    40 1   
    35    21    41 1   
    36    22    23 ar  
    37    22    27 ar  
    38    23    24 ar  
    39    23    42 1   
    40    24    25 ar  
    41    24    43 1   
    42    25    26 ar  
    43    25    44 1   
    44    26    27 ar  
    45    26    28 1   
    46    27    30 1   
    47    28    29 1   
    48    28    45 1   
    49    29    30 2   
    50    30    46 1   
@<TRIPOS>SUBSTRUCTURE
     1 4DO         1 TEMP              0 ****  ****    0 ROOT
