@<TRIPOS>MOLECULE
4DQ
   49    53     1     0     0
SMALL
bcc


@<TRIPOS>ATOM
      1 F2           0.0000     0.0000     0.0000 f          1 4DQ      -0.116900
      2 C20          1.3510     0.0000     0.0000 ca         1 4DQ      -0.254700
      3 C10          2.0660     0.0000     1.2020 ca         1 4DQ       0.571200
      4 N1           1.3990    -0.0010     2.4180 nh         1 4DQ      -0.288700
      5 C3           0.0090     0.1220     2.4510 ca         1 4DQ       0.067600
      6 C9          -0.5880     1.3920     2.5280 ca         1 4DQ      -0.251900
      7 C8          -0.0740     2.7100     2.5860 cc         1 4DQ       0.429800
      8 N3          -1.0710     3.5440     2.6490 nd         1 4DQ      -0.631100
      9 N2          -2.2790     2.8370     2.6360 na         1 4DQ       0.420900
     10 C7          -1.9910     1.4980     2.5610 ca         1 4DQ      -0.182200
     11 C6          -2.7720     0.3460     2.5170 ca         1 4DQ      -0.101000
     12 C5          -2.1720    -0.8900     2.4440 ca         1 4DQ      -0.056000
     13 C4          -0.7900    -1.0060     2.4030 ca         1 4DQ      -0.118000
     14 C2           2.1520    -0.1300     3.6670 c3         1 4DQ       0.161800
     15 C1           2.4780     1.2610     4.2130 c3         1 4DQ      -0.022100
     16 C19          2.0590    -0.0050    -1.1870 ca         1 4DQ       0.498200
     17 N7           3.3850    -0.0050    -1.1520 nb         1 4DQ      -0.723000
     18 C11          4.0340     0.0010     0.0030 ca         1 4DQ       0.732900
     19 N4           3.3940     0.0010     1.1610 nb         1 4DQ      -0.741000
     20 N5           5.4210     0.0000    -0.0040 nu         1 4DQ      -0.287300
     21 C12          6.1150    -0.1230    -1.2110 ca         1 4DQ      -0.018400
     22 C18          7.2850     0.5940    -1.4270 ca         1 4DQ       0.011000
     23 C17          7.9590     0.4630    -2.6200 ca         1 4DQ      -0.106500
     24 S1           9.4460     1.2000    -3.2340 sy         1 4DQ       1.024200
     25 O1          10.5230     0.6900    -2.4600 o          1 4DQ      -0.580300
     26 O2           9.1870     2.5850    -3.4190 o          1 4DQ      -0.580300
     27 N6           9.5490     0.5030    -4.7480 n7         1 4DQ      -0.560100
     28 C16          8.3800    -0.3690    -4.8430 c3         1 4DQ       0.254100
     29 C15          7.5010    -0.3710    -3.6250 ca         1 4DQ      -0.074300
     30 C14          6.3250    -1.0860    -3.4000 ca         1 4DQ      -0.076000
     31 C13          5.6460    -0.9690    -2.2090 ca         1 4DQ      -0.054000
     32 H10          0.9760     2.9790     2.5800 h4         1 4DQ       0.020800
     33 H1          -3.1950     3.2390     2.6740 hn         1 4DQ       0.154700
     34 H9          -3.8520     0.4230     2.5480 ha         1 4DQ       0.105000
     35 H8          -2.7860    -1.7810     2.4050 ha         1 4DQ       0.105000
     36 H7          -0.3330    -1.9860     2.3450 ha         1 4DQ       0.113000
     37 H6           3.0730    -0.6680     3.4790 h1         1 4DQ       0.033200
     38 H5           1.5580    -0.6720     4.3930 h1         1 4DQ       0.033200
     39 H4           3.3410     1.2010     4.8640 hc         1 4DQ       0.012033
     40 H3           1.6290     1.6380     4.7710 hc         1 4DQ       0.012033
     41 H2           2.6930     1.9310     3.3890 hc         1 4DQ       0.012033
     42 H18          1.5370    -0.0100    -2.1360 h4         1 4DQ      -0.007900
     43 H11          5.9250     0.0880     0.8560 hn         1 4DQ       0.295800
     44 H17          7.7010     1.2040    -0.6350 ha         1 4DQ       0.110000
     45 H16         10.1690     0.7620    -5.4890 hn         1 4DQ       0.375800
     46 H15          7.7820    -0.0310    -5.6810 h1         1 4DQ       0.020200
     47 H14          8.7340    -1.3810    -4.9950 h1         1 4DQ       0.020200
     48 H13          5.9460    -1.7490    -4.1680 ha         1 4DQ       0.106000
     49 H12          4.7400    -1.5410    -2.0470 ha         1 4DQ       0.130000
@<TRIPOS>BOND
     1     1     2 1   
     2     2     3 ar  
     3     2    16 ar  
     4     3     4 1   
     5     3    19 ar  
     6     4     5 1   
     7     4    14 1   
     8     5     6 ar  
     9     5    13 ar  
    10     6     7 1   
    11     6    10 ar  
    12     7     8 2   
    13     7    32 1   
    14     8     9 1   
    15     9    10 1   
    16     9    33 1   
    17    10    11 ar  
    18    11    12 ar  
    19    11    34 1   
    20    12    13 ar  
    21    12    35 1   
    22    13    36 1   
    23    14    15 1   
    24    14    37 1   
    25    14    38 1   
    26    15    39 1   
    27    15    40 1   
    28    15    41 1   
    29    16    17 ar  
    30    16    42 1   
    31    17    18 ar  
    32    18    19 ar  
    33    18    20 1   
    34    20    21 1   
    35    20    43 1   
    36    21    22 ar  
    37    21    31 ar  
    38    22    23 ar  
    39    22    44 1   
    40    23    24 1   
    41    23    29 ar  
    42    24    25 2   
    43    24    26 2   
    44    24    27 1   
    45    27    28 1   
    46    27    45 1   
    47    28    29 1   
    48    28    46 1   
    49    28    47 1   
    50    29    30 ar  
    51    30    31 ar  
    52    30    48 1   
    53    31    49 1   
@<TRIPOS>SUBSTRUCTURE
     1 4DQ         1 TEMP              0 ****  ****    0 ROOT
