@<TRIPOS>MOLECULE
molecule
   49    53     1     0     0
SMALL
bcc


@<TRIPOS>ATOM
      1 F2           0.0000     0.0000     0.0000 f          1 4DQ      -0.125900
      2 C20          1.3510     0.0000     0.0000 ca         1 4DQ      -0.219700
      3 C10          2.0660     0.0000     1.2020 ca         1 4DQ       0.744200
      4 N1           1.3990    -0.0010     2.4180 nh         1 4DQ      -0.693700
      5 C3           0.0090     0.1220     2.4510 ca         1 4DQ       0.207600
      6 C9          -0.5880     1.3920     2.5280 ca         1 4DQ      -0.247900
      7 C8          -0.0740     2.7100     2.5860 cc         1 4DQ       0.382800
      8 N3          -1.0710     3.5440     2.6490 nd         1 4DQ      -0.498100
      9 N2          -2.2790     2.8370     2.6360 na         1 4DQ      -0.050100
     10 C7          -1.9910     1.4980     2.5610 ca         1 4DQ      -0.015200
     11 C6          -2.7720     0.3460     2.5170 ca         1 4DQ      -0.151000
     12 C5          -2.1720    -0.8900     2.4440 ca         1 4DQ      -0.080000
     13 C4          -0.7900    -1.0060     2.4030 ca         1 4DQ      -0.157000
     14 C2           2.1520    -0.1300     3.6670 c3         1 4DQ       0.240800
     15 C1           2.4780     1.2610     4.2130 c3         1 4DQ      -0.115100
     16 C19          2.0590    -0.0050    -1.1870 ca         1 4DQ       0.488200
     17 N7           3.3850    -0.0050    -1.1520 nb         1 4DQ      -0.810000
     18 C11          4.0340     0.0010     0.0030 ca         1 4DQ       0.959900
     19 N4           3.3940     0.0010     1.1610 nb         1 4DQ      -0.842000
     20 N5           5.4210     0.0000    -0.0040 nu         1 4DQ      -0.756300
     21 C12          6.1150    -0.1230    -1.2110 ca         1 4DQ       0.154600
     22 C18          7.2850     0.5940    -1.4270 ca         1 4DQ      -0.030000
     23 C17          7.9590     0.4630    -2.6200 ca         1 4DQ      -0.258500
     24 S1           9.4460     1.2000    -3.2340 sy         1 4DQ       1.404200
     25 O1          10.5230     0.6900    -2.4600 o          1 4DQ      -0.626800
     26 O2           9.1870     2.5850    -3.4190 o          1 4DQ      -0.626800
     27 N6           9.5490     0.5030    -4.7480 n7         1 4DQ      -0.900100
     28 C16          8.3800    -0.3690    -4.8430 c3         1 4DQ       0.237100
     29 C15          7.5010    -0.3710    -3.6250 ca         1 4DQ      -0.075300
     30 C14          6.3250    -1.0860    -3.4000 ca         1 4DQ      -0.101000
     31 C13          5.6460    -0.9690    -2.2090 ca         1 4DQ      -0.075000
     32 H10          0.9760     2.9790     2.5800 h4         1 4DQ       0.065800
     33 H1          -3.1950     3.2390     2.6740 hn         1 4DQ       0.334700
     34 H9          -3.8520     0.4230     2.5480 ha         1 4DQ       0.133000
     35 H8          -2.7860    -1.7810     2.4050 ha         1 4DQ       0.138000
     36 H7          -0.3330    -1.9860     2.3450 ha         1 4DQ       0.142000
     37 H6           3.0730    -0.6680     3.4790 h1         1 4DQ       0.062700
     38 H5           1.5580    -0.6720     4.3930 h1         1 4DQ       0.062700
     39 H4           3.3410     1.2010     4.8640 hc         1 4DQ       0.043700
     40 H3           1.6290     1.6380     4.7710 hc         1 4DQ       0.043700
     41 H2           2.6930     1.9310     3.3890 hc         1 4DQ       0.043700
     42 H18          1.5370    -0.0100    -2.1360 h4         1 4DQ       0.043100
     43 H11          5.9250     0.0880     0.8560 hn         1 4DQ       0.470800
     44 H17          7.7010     1.2040    -0.6350 ha         1 4DQ       0.142000
     45 H16         10.1690     0.7620    -5.4890 hn         1 4DQ       0.487800
     46 H15          7.7820    -0.0310    -5.6810 h1         1 4DQ       0.064200
     47 H14          8.7340    -1.3810    -4.9950 h1         1 4DQ       0.064200
     48 H13          5.9460    -1.7490    -4.1680 ha         1 4DQ       0.137000
     49 H12          4.7400    -1.5410    -2.0470 ha         1 4DQ       0.160000
@<TRIPOS>BOND
     1     1     2 1
     2     2     3 ar
     3     2    16 ar
     4     3     4 1
     5     3    19 ar
     6     4     5 1
     7     4    14 1
     8     5     6 ar
     9     5    13 ar
    10     6     7 1
    11     6    10 ar
    12     7     8 2
    13     8     9 1
    14     9    10 1
    15    10    11 ar
    16    11    12 ar
    17    12    13 ar
    18    14    15 1
    19    16    17 ar
    20    17    18 ar
    21    18    19 ar
    22    18    20 1
    23    20    21 1
    24    21    22 ar
    25    21    31 ar
    26    22    23 ar
    27    23    24 1
    28    23    29 ar
    29    24    25 2
    30    24    26 2
    31    24    27 1
    32    27    28 1
    33    28    29 1
    34    29    30 ar
    35    30    31 ar
    36     7    32 1
    37     9    33 1
    38    11    34 1
    39    12    35 1
    40    13    36 1
    41    14    37 1
    42    14    38 1
    43    15    39 1
    44    15    40 1
    45    15    41 1
    46    16    42 1
    47    20    43 1
    48    22    44 1
    49    27    45 1
    50    28    46 1
    51    28    47 1
    52    30    48 1
    53    31    49 1
@<TRIPOS>SUBSTRUCTURE
     1 4DQ         1 TEMP              0 ****  ****    0 ROOT
