@<TRIPOS>MOLECULE
4DS
   36    37     1     0     0
SMALL
bcc


@<TRIPOS>ATOM
      1 OAA          0.0000     0.0000     0.0000 o          1 4DS      -0.575867
      2 SAB          1.5230     0.0000     0.0000 s6         1 4DS       0.734600
      3 OAC          1.9230     0.0000     1.3630 o          1 4DS      -0.575867
      4 OAD          1.9240    -0.9980    -0.9280 o          1 4DS      -0.575867
      5 CAE          2.0450     1.5430    -0.6720 ca         1 4DS      -0.133500
      6 CAF          2.3410     1.6340    -1.9870 ca         1 4DS       0.082000
      7 CAG          2.7740     2.9230    -2.5380 ca         1 4DS      -0.072600
      8 CAH          2.8730     4.0800    -1.6380 ca         1 4DS      -0.129000
      9 CAI          2.5630     3.9290    -0.3320 ca         1 4DS      -0.131500
     10 CAJ          2.1440     2.6750     0.1700 ca         1 4DS       0.104200
     11 CAK          1.8300     2.5500     1.5290 ce         1 4DS      -0.095700
     12 CAL          2.2650     3.5080     2.4320 cf         1 4DS      -0.095700
     13 CAM          1.9500     3.3820     3.7910 ca         1 4DS       0.104200
     14 CAN          2.2010     4.4670     4.6630 ca         1 4DS      -0.133500
     15 CAO          1.9080     4.3760     5.9790 ca         1 4DS       0.082000
     16 CAP          1.3250     3.1330     6.5000 ca         1 4DS      -0.072600
     17 CAQ          1.0760     2.0240     5.5700 ca         1 4DS      -0.129000
     18 CAR          1.3850     2.1750     4.2640 ca         1 4DS      -0.131500
     19 NAS          1.0300     3.0150     7.7790 ne         1 4DS      -0.161300
     20 CAT          0.5330     1.9520     8.2100 c1         1 4DS       0.447800
     21 SAU         -0.0860     0.6220     8.7210 s          1 4DS      -0.538400
     22 SAV          3.3770     5.2850     4.2080 s6         1 4DS       0.734600
     23 OAW          4.1640     6.0300     5.5550 o          1 4DS      -0.575867
     24 OAX          4.5690     4.6200     3.2430 o          1 4DS      -0.575867
     25 OAY          3.1260     6.5570     3.2460 o          1 4DS      -0.575867
     26 NAZ          3.4310     3.4240    -3.4960 ne         1 4DS      -0.161300
     27 CBA          3.1920     4.5920    -3.7370 c1         1 4DS       0.447800
     28 SBB          3.5740     6.3580    -4.1840 s          1 4DS      -0.538400
     29 HAF          2.6740     0.6200    -2.1740 ha         1 4DS       0.145000
     30 HAH          3.2580     5.0660    -1.8670 ha         1 4DS       0.139500
     31 HAI          2.5200     4.9210     0.1010 ha         1 4DS       0.158000
     32 HAK          1.1860     1.9860     2.1930 ha         1 4DS       0.177500
     33 HAL          2.6110     4.5140     2.2270 ha         1 4DS       0.177500
     34 HAR          1.6040     1.2960     3.6700 ha         1 4DS       0.158000
     35 HAO          1.8020     5.0170     6.8450 ha         1 4DS       0.145000
     36 HAQ          0.6340     1.1100     5.9470 ha         1 4DS       0.139500
@<TRIPOS>BOND
     1     1     2 1   
     2     2     3 1   
     3     2     4 1   
     4     2     5 1   
     5     5     6 ar  
     6     5    10 ar  
     7     6     7 ar  
     8     6    29 1   
     9     7     8 ar  
    10     7    26 1   
    11     8     9 ar  
    12     8    30 1   
    13     9    10 ar  
    14     9    31 1   
    15    10    11 1   
    16    11    12 2   
    17    11    32 1   
    18    12    13 1   
    19    12    33 1   
    20    13    14 ar  
    21    13    18 ar  
    22    14    15 ar  
    23    14    22 1   
    24    15    16 ar  
    25    15    35 1   
    26    16    17 ar  
    27    16    19 1   
    28    17    18 ar  
    29    17    36 1   
    30    18    34 1   
    31    19    20 2   
    32    20    21 2   
    33    22    23 1   
    34    22    24 1   
    35    22    25 1   
    36    26    27 2   
    37    27    28 2   
@<TRIPOS>SUBSTRUCTURE
     1 4DS         1 TEMP              0 ****  ****    0 ROOT
