@<TRIPOS>MOLECULE
molecule
   58    62     1     0     0
SMALL
bcc


@<TRIPOS>ATOM
      1 F1           0.0000     0.0000     0.0000 f          1 4DT      -0.132900
      2 C23          1.3510     0.0000     0.0000 ca         1 4DT      -0.236700
      3 C10          2.0660     0.0000     1.2020 ca         1 4DT       0.741200
      4 N1           1.3990    -0.0030     2.4180 nh         1 4DT      -0.700700
      5 C3           0.0080     0.1060     2.4510 ca         1 4DT       0.216600
      6 C9          -0.6010     1.3720     2.5230 ca         1 4DT      -0.248900
      7 C8          -0.1000     2.6930     2.5750 cc         1 4DT       0.384800
      8 N3          -1.1050     3.5180     2.6340 nd         1 4DT      -0.505100
      9 N2          -2.3070     2.8000     2.6240 na         1 4DT      -0.052100
     10 C7          -2.0040     1.4640     2.5560 ca         1 4DT      -0.016200
     11 C6          -2.7740     0.3040     2.5150 ca         1 4DT      -0.156000
     12 C5          -2.1630    -0.9270     2.4450 ca         1 4DT      -0.079000
     13 C4          -0.7780    -1.0280     2.4090 ca         1 4DT      -0.158000
     14 C2           2.1550    -0.1190     3.6680 c3         1 4DT       0.242800
     15 C1           2.4350     1.2780     4.2260 c3         1 4DT      -0.115100
     16 C22          2.0590    -0.0040    -1.1870 ca         1 4DT       0.488200
     17 N8           3.3840    -0.0020    -1.1520 nb         1 4DT      -0.790000
     18 C11          4.0350     0.0020     0.0010 ca         1 4DT       0.967900
     19 N4           3.3950     0.0000     1.1610 nb         1 4DT      -0.852000
     20 N5           5.4210     0.0030    -0.0050 nu         1 4DT      -0.766700
     21 C12          6.1140     0.1080    -1.2150 ce         1 4DT       0.221000
     22 C21          5.8630     1.2610    -2.0710 ce         1 4DT      -0.270000
     23 C20          6.4940     1.4360    -3.2560 cd         1 4DT       0.096700
     24 C15          7.4720     0.4450    -3.7250 cd         1 4DT      -0.211300
     25 C14          7.7440    -0.7550    -2.8520 c3         1 4DT       0.065100
     26 C13          6.9910    -0.8530    -1.5430 c2         1 4DT      -0.247200
     27 N7           6.4380     2.4190    -4.2370 na         1 4DT      -0.172400
     28 N6           7.3350     2.0470    -5.2490 na         1 4DT      -0.283400
     29 C16          7.9360     0.8580    -4.9080 cc         1 4DT      -0.041300
     30 C17          5.5990     3.6200    -4.2180 c3         1 4DT       0.093300
     31 C18          6.3610     4.7630    -3.5440 c3         1 4DT      -0.116400
     32 C19          5.4850     6.0170    -3.5240 c3         1 4DT       0.141400
     33 O1           6.1970     7.0850    -2.8940 oh         1 4DT      -0.606800
     34 H10          0.9470     2.9720     2.5670 h4         1 4DT       0.065800
     35 H9          -3.2260     3.1930     2.6600 hn         1 4DT       0.333700
     36 H8          -3.8550     0.3710     2.5430 ha         1 4DT       0.131000
     37 H7          -2.7670    -1.8250     2.4110 ha         1 4DT       0.136000
     38 H6          -0.3120    -2.0040     2.3540 ha         1 4DT       0.142000
     39 H__4         3.0930    -0.6260     3.4770 h1         1 4DT       0.061200
     40 H__5         1.5770    -0.6860     4.3870 h1         1 4DT       0.061200
     41 H__1         3.2990     1.2390     4.8780 hc         1 4DT       0.042367
     42 H__2         1.5740     1.6220     4.7870 hc         1 4DT       0.042367
     43 H__3         2.6300     1.9610     3.4080 hc         1 4DT       0.042367
     44 H24          1.5370    -0.0070    -2.1360 h4         1 4DT       0.037100
     45 H11          5.9250    -0.0680     0.8570 hn         1 4DT       0.462800
     46 H23          5.1470     2.0050    -1.7470 ha         1 4DT       0.128000
     47 H13          8.8030    -0.7630    -2.6240 hc         1 4DT       0.041700
     48 H1           7.5160    -1.6420    -3.4310 hc         1 4DT       0.041700
     49 H12          7.2630    -1.6090    -0.8160 ha         1 4DT       0.132000
     50 H15          7.5090     2.5650    -6.0870 hn         1 4DT       0.322700
     51 H14          8.1800     0.1340    -5.6760 h4         1 4DT       0.174000
     52 H1_7         4.6900     3.4170    -3.6650 h1         1 4DT       0.060200
     53 H1_6         5.3500     3.9020    -5.2330 h1         1 4DT       0.060200
     54 H1_8         6.6110     4.4810    -2.5280 hc         1 4DT       0.068200
     55 H1_9         7.2700     4.9670    -4.0960 hc         1 4DT       0.068200
     56 H2_0         4.5760     5.8140    -2.9710 h1         1 4DT       0.020200
     57 H2_1         5.2360     6.3000    -4.5390 h1         1 4DT       0.020200
     58 H22          5.7620     7.9020    -3.0750 ho         1 4DT       0.404000
@<TRIPOS>BOND
     1    33    32 1
     2    32    31 1
     3    11    12 ar
     4    11    10 ar
     5    12    13 ar
     6    31    30 1
     7    10     9 1
     8    10     6 ar
     9     9     8 1
    10    13     5 ar
    11     6     5 ar
    12     6     7 1
    13     5     4 1
    14    14     4 1
    15    14    15 1
    16     8     7 2
    17    30    27 1
    18     4     3 1
    19    28    27 1
    20    28    29 1
    21    27    23 1
    22    29    24 2
    23    23    22 2
    24    23    24 1
    25     3    19 ar
    26     3     2 ar
    27    19    18 ar
    28    22    21 1
    29    24    25 1
    30     1     2 1
    31     2    16 ar
    32    21    20 1
    33    21    26 2
    34    18    20 1
    35    18    17 ar
    36    25    26 1
    37    16    17 ar
    38     7    34 1
    39     9    35 1
    40    11    36 1
    41    12    37 1
    42    13    38 1
    43    14    39 1
    44    14    40 1
    45    15    41 1
    46    15    42 1
    47    15    43 1
    48    16    44 1
    49    20    45 1
    50    22    46 1
    51    25    47 1
    52    25    48 1
    53    26    49 1
    54    28    50 1
    55    29    51 1
    56    30    52 1
    57    30    53 1
    58    31    54 1
    59    31    55 1
    60    32    56 1
    61    32    57 1
    62    33    58 1
@<TRIPOS>SUBSTRUCTURE
     1 4DT         1 TEMP              0 ****  ****    0 ROOT
