@<TRIPOS>MOLECULE
molecule
   69    73     1     0     0
SMALL
bcc


@<TRIPOS>ATOM
      1 O1           0.0000     0.0000     0.0000 o          1 4DV      -0.843800
      2 C7           3.9760    -0.8400    -7.6720 ca         1 4DV      -0.110000
      3 O2           1.8790     0.0000     1.1630 o          1 4DV      -0.843800
      4 C6           4.0070     0.5580    -7.7240 cp         1 4DV      -0.100000
      5 C1           1.7230     0.0030    -3.7730 cc         1 4DV      -0.005300
      6 N1           2.1160    -1.1170    -4.4520 na         1 4DV      -0.058400
      7 C5           3.4210     1.3050    -6.7110 ca         1 4DV      -0.058000
      8 C4           2.8050     0.6500    -5.6450 ca         1 4DV      -0.091800
      9 C2           2.1080     1.1030    -4.4380 cd         1 4DV      -0.171400
     10 C32         -1.8640    -3.8330    -5.6180 ca         1 4DV       0.030400
     11 C31         -0.6960    -4.0230    -6.3350 ca         1 4DV      -0.126500
     12 C30          0.5100    -3.5900    -5.8180 ca         1 4DV      -0.100000
     13 C33         -1.8240    -3.2080    -4.3850 ca         1 4DV      -0.126500
     14 C34         -0.6160    -2.7810    -3.8660 ca         1 4DV      -0.100000
     15 C29          0.5490    -2.9660    -4.5850 ca         1 4DV      -0.110300
     16 C28          1.8660    -2.4950    -4.0220 c3         1 4DV       0.082600
     17 C9           2.7810    -0.7570    -5.6040 ca         1 4DV      -0.031200
     18 C23          0.9690     0.0020    -2.4680 c3         1 4DV      -0.005200
     19 C24          1.9620     0.0010    -1.3050 c3         1 4DV      -0.163000
     20 C27          1.2080     0.0000     0.0000 c          1 4DV       0.898600
     21 C26          2.8420    -1.2480    -1.3860 c3         1 4DV      -0.072100
     22 C25          2.8410     1.2510    -1.3840 c3         1 4DV      -0.072100
     23 C8           3.3750    -1.4860    -6.6310 ca         1 4DV      -0.143000
     24 C10          4.6650     1.2430    -8.8630 cp         1 4DV       0.029000
     25 C15          5.2540     0.4930    -9.8810 ca         1 4DV      -0.152000
     26 C14          5.8660     1.1270   -10.9400 ca         1 4DV      -0.090000
     27 C13          5.8980     2.5200   -10.9940 cp         1 4DV      -0.100000
     28 C12          5.3090     3.2720    -9.9750 ca         1 4DV       0.146900
     29 F1           5.3400     4.6210   -10.0270 f          1 4DV      -0.140900
     30 C11          4.6920     2.6350    -8.9180 ca         1 4DV      -0.174000
     31 C16          6.5580     3.2020   -12.1330 cp         1 4DV      -0.032000
     32 C21          7.7010     3.9710   -11.9210 ca         1 4DV      -0.058300
     33 C22          8.2660     4.1160   -10.5310 c3         1 4DV      -0.053800
     34 C20          8.3150     4.6000   -12.9850 ca         1 4DV      -0.132000
     35 C19          7.7980     4.4670   -14.2610 ca         1 4DV      -0.128000
     36 C18          6.6630     3.7050   -14.4780 ca         1 4DV      -0.140000
     37 C17          6.0420     3.0720   -13.4210 ca         1 4DV      -0.109000
     38 H1           4.4350    -1.4160    -8.4670 ha         1 4DV       0.121000
     39 H3           3.4430     2.3870    -6.7480 ha         1 4DV       0.130000
     40 H4           2.7800     2.9440    -3.6070 hc         1 4DV       0.037700
     41 H5           1.0830     2.5660    -3.2800 hc         1 4DV       0.037700
     42 H6           1.5730     3.1130    -4.8890 hc         1 4DV       0.037700
     43 H7          -0.7270    -4.5120    -7.3010 ha         1 4DV       0.142000
     44 H8           1.4240    -3.7370    -6.3800 ha         1 4DV       0.151500
     45 H9          -2.7370    -3.0620    -3.8220 ha         1 4DV       0.142000
     46 H10         -0.5840    -2.2910    -2.9000 ha         1 4DV       0.151500
     47 H11          2.6620    -3.1360    -4.3800 h1         1 4DV       0.079700
     48 H12          1.8300    -2.5340    -2.9400 h1         1 4DV       0.079700
     49 H13          0.3470    -0.8830    -2.4110 hc         1 4DV       0.063700
     50 H14          0.3460     0.8860    -2.4100 hc         1 4DV       0.063700
     51 H15          3.6320    -1.1820    -0.6480 hc         1 4DV       0.026867
     52 H16          3.2780    -1.3190    -2.3760 hc         1 4DV       0.026867
     53 H17          2.2400    -2.1270    -1.1930 hc         1 4DV       0.026867
     54 H18          3.4480     1.3230    -0.4890 hc         1 4DV       0.026867
     55 H19          2.2130     2.1300    -1.4670 hc         1 4DV       0.026867
     56 H20          3.4860     1.1840    -2.2520 hc         1 4DV       0.026867
     57 H21          3.3580    -2.5690    -6.6050 ha         1 4DV       0.117000
     58 H22          5.2290    -0.5890    -9.8390 ha         1 4DV       0.138000
     59 H23          6.3230     0.5430   -11.7300 ha         1 4DV       0.134000
     60 H24          4.2340     3.2180    -8.1280 ha         1 4DV       0.153000
     61 H25          9.3120     4.3930   -10.5930 hc         1 4DV       0.048033
     62 H26          8.1730     3.1740   -10.0030 hc         1 4DV       0.048033
     63 H27          7.7200     4.8840    -9.9970 hc         1 4DV       0.048033
     64 H28          9.2030     5.1970   -12.8210 ha         1 4DV       0.128000
     65 H29          8.2830     4.9620   -15.0930 ha         1 4DV       0.123000
     66 H30          6.2630     3.6050   -15.4800 ha         1 4DV       0.125000
     67 H31          5.1530     2.4760   -13.5920 ha         1 4DV       0.134000
     68 C3           1.8690     2.5320    -4.0250 c3         1 4DV      -0.009900
     69 Cl1         -3.3810    -4.3710    -6.2700 cl         1 4DV      -0.129400
@<TRIPOS>BOND
     1    34    35 ar  
     2    34    32 ar  
     3    35    36 ar  
     4    33    32 1   
     5    32    31 ar  
     6    36    37 ar  
     7    31    37 ar  
     8    31    27 1   
     9    27    26 ar  
    10    27    28 ar  
    11    29    28 1   
    12    26    25 ar  
    13    28    30 ar  
    14    25    24 ar  
    15    30    24 ar  
    16    24     4 1   
    17     4     7 ar  
    18     4     2 ar  
    19     7     8 ar  
    20    68     9 1   
    21     2    23 ar  
    22     8     9 1   
    23     8    17 ar  
    24     9     5 2   
    25    23    17 ar  
    26    17     6 1   
    27    22    19 1   
    28     5     6 1   
    29     5    18 1   
    30     6    16 1   
    31    18    19 1   
    32    19    21 1   
    33    19    20 1   
    34    16    15 1   
    35    20     1 1   
    36    20     3 1   
    37    12    15 ar  
    38    12    11 ar  
    39    15    14 ar  
    40    11    10 ar  
    41    14    13 ar  
    42    10    13 ar  
    43    10    69 1   
    44     2    38 1   
    45     7    39 1   
    46    68    40 1   
    47    68    41 1   
    48    68    42 1   
    49    11    43 1   
    50    12    44 1   
    51    13    45 1   
    52    14    46 1   
    53    16    47 1   
    54    16    48 1   
    55    18    49 1   
    56    18    50 1   
    57    21    51 1   
    58    21    52 1   
    59    21    53 1   
    60    22    54 1   
    61    22    55 1   
    62    22    56 1   
    63    23    57 1   
    64    25    58 1   
    65    26    59 1   
    66    30    60 1   
    67    33    61 1   
    68    33    62 1   
    69    33    63 1   
    70    34    64 1   
    71    35    65 1   
    72    36    66 1   
    73    37    67 1   
@<TRIPOS>SUBSTRUCTURE
     1 4DV         1 TEMP              0 ****  ****    0 ROOT
