@<TRIPOS>MOLECULE
4DV
   69    73     1     0     0
SMALL
bcc


@<TRIPOS>ATOM
      1 O1          0.9420   -2.3230   -1.0790 o         1 4DV     -0.842300
      2 C7          3.8280   -0.7850   -7.7880 ca        1 4DV     -0.117000
      3 O2          2.3060   -1.7540    0.5830 o         1 4DV     -0.842300
      4 C6          3.9900    0.6180   -7.7930 cp        1 4DV     -0.104000
      5 C1          1.8440    0.0980   -3.7190 cc        1 4DV      0.021700
      6 N1          2.0940   -1.0620   -4.4780 na        1 4DV     -0.049400
      7 C5          3.5220    1.3840   -6.7230 ca        1 4DV     -0.070000
      8 C4          2.8940    0.7550   -5.6520 ca        1 4DV     -0.079800
      9 C2          2.3230    1.2220   -4.4110 cd        1 4DV     -0.183400
     10 C32        -2.1950   -3.6310   -5.4550 ca        1 4DV      0.016400
     11 C31        -1.2210   -3.3070   -6.4030 ca        1 4DV     -0.140500
     12 C30         0.0360   -2.8890   -5.9710 ca        1 4DV     -0.104500
     13 C33        -1.9240   -3.5330   -4.0880 ca        1 4DV     -0.140500
     14 C34        -0.6650   -3.1090   -3.6640 ca        1 4DV     -0.104500
     15 C29         0.3220   -2.7950   -4.6060 ca        1 4DV     -0.100300
     16 C28         1.6900   -2.3950   -4.1230 c3        1 4DV      0.047600
     17 C9          2.7280   -0.6860   -5.6640 ca        1 4DV     -0.040200
     18 C23         1.1340    0.0970   -2.4140 c3        1 4DV     -0.030200
     19 C24         2.0150   -0.1260   -1.1810 c3        1 4DV     -0.173000
     20 C27         1.7290   -1.5080   -0.5080 c         1 4DV      0.920600
     21 C26         3.4950   -0.0810   -1.5100 c3        1 4DV     -0.068600
     22 C25         1.7010    0.9530   -0.1540 c3        1 4DV     -0.068600
     23 C8          3.2050   -1.4460   -6.7430 ca        1 4DV     -0.147000
     24 C10         4.6550    1.2630   -8.9220 cp        1 4DV      0.031000
     25 C15         5.7700    0.6650   -9.5310 ca        1 4DV     -0.148000
     26 C14         6.4060    1.2800  -10.6020 ca        1 4DV     -0.099000
     27 C13         5.9570    2.5080  -11.1070 cp        1 4DV     -0.095000
     28 C12         4.8350    3.1100  -10.4970 ca        1 4DV      0.135900
     29 F1          4.3560    4.2960  -10.9450 f         1 4DV     -0.143900
     30 C11         4.1910    2.4890   -9.4100 ca        1 4DV     -0.171000
     31 C16         6.6380    3.1220  -12.2510 cp        1 4DV     -0.030000
     32 C21         7.8940    3.7390  -12.1080 ca        1 4DV     -0.055300
     33 C22         8.5560    3.8280  -10.7850 c3        1 4DV     -0.056800
     34 C20         8.5160    4.2930  -13.2330 ca        1 4DV     -0.138000
     35 C19         7.9050    4.2390  -14.4840 ca        1 4DV     -0.128000
     36 C18         6.6590    3.6310  -14.6230 ca        1 4DV     -0.141000
     37 C17         6.0290    3.0770  -13.5120 ca        1 4DV     -0.106000
     38 H1          4.2000   -1.3660   -8.6460 ha        1 4DV      0.120000
     39 H3          3.6570    2.4760   -6.7140 ha        1 4DV      0.129000
     40 H4          2.5260    2.6850   -2.8720 hc        1 4DV      0.031700
     41 H5          1.2240    3.0220   -4.0870 hc        1 4DV      0.031700
     42 H6          2.9650    3.2520   -4.5430 hc        1 4DV      0.031700
     43 H7         -1.4410   -3.3760   -7.4770 ha        1 4DV      0.138500
     44 H8          0.8070   -2.6210   -6.7110 ha        1 4DV      0.175500
     45 H9         -2.6960   -3.7830   -3.3450 ha        1 4DV      0.138500
     46 H10        -0.4370   -3.0140   -2.5810 ha        1 4DV      0.175500
     47 H11         2.4440   -3.1140   -4.5580 h1        1 4DV      0.106700
     48 H12         1.7210   -2.4740   -2.9840 h1        1 4DV      0.106700
     49 H13         0.3300   -0.6960   -2.4180 hc        1 4DV      0.065700
     50 H14         0.6220    1.0960   -2.3370 hc        1 4DV      0.065700
     51 H15         3.7650   -0.9080   -2.2090 hc        1 4DV      0.025367
     52 H16         3.7690    0.8930   -1.9820 hc        1 4DV      0.025367
     53 H17         4.0840   -0.2130   -0.5690 hc        1 4DV      0.025367
     54 H18         2.0080    1.9590   -0.5290 hc        1 4DV      0.025367
     55 H19         0.6080    0.9700    0.0680 hc        1 4DV      0.025367
     56 H20         2.2510    0.7300    0.7930 hc        1 4DV      0.025367
     57 H21         3.0930   -2.5390   -6.7560 ha        1 4DV      0.130000
     58 H22         6.1470   -0.2950   -9.1480 ha        1 4DV      0.142000
     59 H23         7.2800    0.8000  -11.0690 ha        1 4DV      0.134000
     60 H24         3.3160    2.9740   -8.9540 ha        1 4DV      0.154000
     61 H25         8.0760    4.6320  -10.1720 hc        1 4DV      0.048033
     62 H26         9.6420    4.0690  -10.8920 hc        1 4DV      0.048033
     63 H27         8.4570    2.8620  -10.2290 hc        1 4DV      0.048033
     64 H28         9.4980    4.7760  -13.1250 ha        1 4DV      0.127000
     65 H29         8.4060    4.6780  -15.3590 ha        1 4DV      0.125000
     66 H30         6.1710    3.5900  -15.6080 ha        1 4DV      0.127000
     67 H31         5.0420    2.6010  -13.6180 ha        1 4DV      0.138000
     68 C3          2.2590    2.6120   -3.9580 c3        1 4DV     -0.010900
     69 CL1        -3.7350   -4.1510   -5.9780 cl        1 4DV     -0.132400
@<TRIPOS>BOND
     1    1   20 1   
     2    2    4 ar  
     3    2   23 ar  
     4    2   38 1   
     5    3   20 1   
     6    4    7 ar  
     7    4   24 1   
     8    5    6 1   
     9    5    9 2   
    10    5   18 1   
    11    6   16 1   
    12    6   17 1   
    13    7    8 ar  
    14    7   39 1   
    15    8    9 1   
    16    8   17 ar  
    17    9   68 1   
    18   10   11 ar  
    19   10   13 ar  
    20   10   69 1   
    21   11   12 ar  
    22   11   43 1   
    23   12   15 ar  
    24   12   44 1   
    25   13   14 ar  
    26   13   45 1   
    27   14   15 ar  
    28   14   46 1   
    29   15   16 1   
    30   16   47 1   
    31   16   48 1   
    32   17   23 ar  
    33   18   19 1   
    34   18   49 1   
    35   18   50 1   
    36   19   20 1   
    37   19   21 1   
    38   19   22 1   
    39   21   51 1   
    40   21   52 1   
    41   21   53 1   
    42   22   54 1   
    43   22   55 1   
    44   22   56 1   
    45   23   57 1   
    46   24   25 ar  
    47   24   30 ar  
    48   25   26 ar  
    49   25   58 1   
    50   26   27 ar  
    51   26   59 1   
    52   27   28 ar  
    53   27   31 1   
    54   28   29 1   
    55   28   30 ar  
    56   30   60 1   
    57   31   32 ar  
    58   31   37 ar  
    59   32   33 1   
    60   32   34 ar  
    61   33   61 1   
    62   33   62 1   
    63   33   63 1   
    64   34   35 ar  
    65   34   64 1   
    66   35   36 ar  
    67   35   65 1   
    68   36   37 ar  
    69   36   66 1   
    70   37   67 1   
    71   40   68 1   
    72   41   68 1   
    73   42   68 1   
@<TRIPOS>SUBSTRUCTURE
     1 4DV         1 TEMP              0 ****  ****    0 ROOT
