@<TRIPOS>MOLECULE
molecule
   49    51     1     0     0
SMALL
bcc


@<TRIPOS>ATOM
      1 C1           0.0000     0.0000     0.0000 ca         1 4DW      -0.101300
      2 C2           1.3830     0.0000     0.0000 ca         1 4DW      -0.141500
      3 C3           2.0760     0.0000     1.1930 ca         1 4DW      -0.088000
      4 C4           1.3790    -0.0010     2.4010 ca         1 4DW      -0.106600
      5 C5          -0.0170    -0.0020     2.3950 ca         1 4DW      -0.088000
      6 C6          -0.6980     0.0040     1.1950 ca         1 4DW      -0.141500
      7 C7          -0.7510     0.0000    -1.3070 c3         1 4DW      -0.023100
      8 C8          -1.0030    -1.4420    -1.7510 c3         1 4DW      -0.011100
      9 C9          -1.7530    -1.4410    -3.0580 cc         1 4DW      -0.054300
     10 C10         -3.0850    -1.5300    -3.2210 cd         1 4DW      -0.139300
     11 N11         -3.3830    -1.4950    -4.5590 na         1 4DW      -0.162100
     12 C12         -2.2440    -1.3840    -5.2880 cd         1 4DW       0.089300
     13 C13         -1.1770    -1.3380    -4.3950 cc         1 4DW      -0.246600
     14 C14          0.1790    -1.2110    -4.9300 c          1 4DW       0.734100
     15 O15          1.1440    -1.1700    -4.1830 o          1 4DW      -0.487100
     16 N16          0.3380    -1.1390    -6.2620 nc         1 4DW      -0.688100
     17 C17         -0.6960    -1.1820    -7.0750 cd         1 4DW       0.694100
     18 N18         -1.9740    -1.3080    -6.6340 na         1 4DW      -0.686600
     19 N19         -0.4720    -1.1060    -8.4230 nz         1 4DW      -0.764600
     20 C20          2.1140    -0.0020     3.6840 c          1 4DW       0.662700
     21 O21          3.3300    -0.0010     3.6870 o          1 4DW      -0.617100
     22 N22          1.4370    -0.0020     4.8500 ns         1 4DW      -0.522900
     23 C23          2.1670    -0.0030     6.1200 c3         1 4DW       0.057900
     24 C24          1.3000     0.5960     7.1970 c2         1 4DW      -0.171200
     25 C25          1.6560     1.7390     7.7790 ce         1 4DW      -0.177200
     26 C26          0.8100     2.3240     8.8290 c          1 4DW       0.878800
     27 O27          1.1710     3.4820     9.4180 o          1 4DW      -0.817300
     28 O28         -0.2140     1.7640     9.1660 o          1 4DW      -0.817300
     29 C29          2.5240    -1.4190     6.4940 c          1 4DW       0.891600
     30 O30          3.2000    -1.6640     7.6270 o          1 4DW      -0.777300
     31 O31          2.2030    -2.3330     5.7710 o          1 4DW      -0.777300
     32 H1           1.9240     0.0120    -0.9390 ha         1 4DW       0.121500
     33 H2           3.1570     0.0710     1.1910 ha         1 4DW       0.150500
     34 H3          -0.5630     0.0740     3.3270 ha         1 4DW       0.150500
     35 H4          -1.7810     0.0200     1.1880 ha         1 4DW       0.121500
     36 H5          -0.1640     0.5120    -2.0600 hc         1 4DW       0.043700
     37 H6          -1.6980     0.5100    -1.1790 hc         1 4DW       0.043700
     38 H7          -1.5900    -1.9540    -0.9980 hc         1 4DW       0.071200
     39 H8          -0.0560    -1.9510    -1.8790 hc         1 4DW       0.071200
     40 H9          -3.8100    -1.6160    -2.4200 h4         1 4DW       0.195000
     41 H10         -4.3060    -1.5450    -4.9420 hn         1 4DW       0.295700
     42 H11         -2.7260    -1.3360    -7.2940 hn         1 4DW       0.429800
     43 H12         -0.9500    -0.3100    -8.7960 hn         1 4DW       0.419467
     44 H13          0.5100    -1.0150    -8.5940 hn         1 4DW       0.419467
     45 H14          0.4360     0.0050     4.8470 hn         1 4DW       0.306500
     46 H15          3.0720     0.5830     6.0170 h1         1 4DW       0.085700
     47 H16          0.3860     0.0970     7.4970 ha         1 4DW       0.144000
     48 H17          2.5690     2.2380     7.4780 ha         1 4DW       0.110000
     49 H193        -0.8140    -1.9350    -8.8660 hn         1 4DW       0.419467
@<TRIPOS>BOND
     1    27    26 1
     2    28    26 1
     3    26    25 1
     4    25    24 2
     5    24    23 1
     6    23    22 1
     7    23    29 1
     8    31    29 1
     9    22    20 1
    10    29    30 1
    11    20    21 2
    12    20     4 1
    13     5     4 ar
    14     5     6 ar
    15     4     3 ar
    16     6     1 ar
    17     3     2 ar
    18     1     2 ar
    19     1     7 1
    20     7     8 1
    21     8     9 1
    22    10     9 2
    23    10    11 1
    24     9    13 1
    25    11    12 1
    26    13    12 2
    27    13    14 1
    28    12    18 1
    29    15    14 2
    30    14    16 1
    31    18    17 1
    32    16    17 2
    33    17    19 1
    34     2    32 1
    35     3    33 1
    36     5    34 1
    37     6    35 1
    38     7    36 1
    39     7    37 1
    40     8    38 1
    41     8    39 1
    42    10    40 1
    43    11    41 1
    44    18    42 1
    45    19    43 1
    46    19    44 1
    47    22    45 1
    48    23    46 1
    49    24    47 1
    50    25    48 1
    51    49    19 1
@<TRIPOS>SUBSTRUCTURE
     1 4DW         1 TEMP              0 ****  ****    0 ROOT
