@<TRIPOS>MOLECULE
4DX
   22    22     1     0     0
SMALL
bcc


@<TRIPOS>ATOM
      1 C1         -0.0250   -0.0020    0.0480 c3        1 4DX     -0.088100
      2 C2          1.4880   -0.0130    0.0180 c3        1 4DX     -0.058700
      3 C3          2.0510    0.0190    1.4310 c3        1 4DX     -0.076400
      4 C4          3.5640   -0.0320    1.4330 c3        1 4DX     -0.078400
      5 C5          4.0700   -1.2590    0.7020 c3        1 4DX     -0.072400
      6 C6          3.5300   -1.3120   -0.7100 c3        1 4DX     -0.112400
      7 C7          2.0040   -1.2540   -0.7210 c3        1 4DX      0.144100
      8 O8          1.5200   -1.1680   -2.0570 oh        1 4DX     -0.600800
      9 H1         -0.4150   -0.8770    0.6210 hc        1 4DX      0.038033
     10 H1A        -0.4240   -0.0530   -0.9940 hc        1 4DX      0.038033
     11 H1B        -0.3940    0.9330    0.5330 hc        1 4DX      0.038033
     12 H2          1.8460    0.8940   -0.5430 hc        1 4DX      0.061700
     13 H3          1.6450   -0.8490    2.0140 hc        1 4DX      0.042200
     14 H3A         1.7060    0.9570    1.9400 hc        1 4DX      0.042200
     15 H4          3.9720    0.8900    0.9430 hc        1 4DX      0.041200
     16 H4A         3.9370   -0.0450    2.4900 hc        1 4DX      0.041200
     17 H5          3.7580   -2.1820    1.2590 hc        1 4DX      0.040700
     18 H5A         5.1910   -1.2460    0.6730 hc        1 4DX      0.040700
     19 H6          3.8690   -2.2560   -1.2110 hc        1 4DX      0.045700
     20 H6A         3.9300   -0.4510   -1.3060 hc        1 4DX      0.045700
     21 H7          1.5850   -2.1820   -0.2370 h1        1 4DX      0.032700
     22 HO8         1.8990   -1.9130   -2.5370 ho        1 4DX      0.397000
@<TRIPOS>BOND
     1    1    2 1   
     2    1    9 1   
     3    1   10 1   
     4    1   11 1   
     5    2    3 1   
     6    2    7 1   
     7    2   12 1   
     8    3    4 1   
     9    3   13 1   
    10    3   14 1   
    11    4    5 1   
    12    4   15 1   
    13    4   16 1   
    14    5    6 1   
    15    5   17 1   
    16    5   18 1   
    17    6    7 1   
    18    6   19 1   
    19    6   20 1   
    20    7    8 1   
    21    7   21 1   
    22    8   22 1   
@<TRIPOS>SUBSTRUCTURE
     1 4DX         1 TEMP              0 ****  ****    0 ROOT
