@<TRIPOS>MOLECULE
molecule
   22    22     1     0     0
SMALL
bcc


@<TRIPOS>ATOM
      1 C1           0.0000     0.0000     0.0000 c3         1 4DX      -0.086100
      2 C2           1.5300     0.0000     0.0000 c3         1 4DX      -0.068700
      3 C3           2.0410     0.0000     1.4420 c3         1 4DX      -0.076400
      4 C4           3.5700    -0.0010     1.4410 c3         1 4DX      -0.082400
      5 C5           4.0790    -1.2510     0.7210 c3         1 4DX      -0.078400
      6 C6           3.5690    -1.2510    -0.7210 c3         1 4DX      -0.105400
      7 C7           2.0390    -1.2500    -0.7210 c3         1 4DX       0.151100
      8 O8           1.5620    -1.2500    -2.0690 oh         1 4DX      -0.606800
      9 H1          -0.3610     0.8310     0.5940 hc         1 4DX       0.036033
     10 H1A         -0.3610    -0.9300     0.4230 hc         1 4DX       0.036033
     11 H1B         -0.3610     0.0990    -1.0170 hc         1 4DX       0.036033
     12 H2           1.8960     0.8830    -0.5100 hc         1 4DX       0.063700
     13 H3           1.6800    -0.8860     1.9510 hc         1 4DX       0.043700
     14 H3A          1.6820     0.8870     1.9510 hc         1 4DX       0.043700
     15 H4           3.9300     0.8820     0.9280 hc         1 4DX       0.042700
     16 H4A          3.9300    -0.0030     2.4630 hc         1 4DX       0.042700
     17 H5           5.1630    -1.2490     0.7190 hc         1 4DX       0.041200
     18 H5A          3.7150    -2.1340     1.2310 hc         1 4DX       0.041200
     19 H6           3.9290    -0.3660    -1.2310 hc         1 4DX       0.048200
     20 H6A          3.9280    -2.1380    -1.2300 hc         1 4DX       0.048200
     21 H7           1.6790    -2.1320    -0.2060 h1         1 4DX       0.029700
     22 HO8          1.4640    -2.1390    -2.3670 ho         1 4DX       0.399000
@<TRIPOS>BOND
     1     1     2 1
     2     2     3 1
     3     2     7 1
     4     3     4 1
     5     4     5 1
     6     5     6 1
     7     6     7 1
     8     7     8 1
     9     1     9 1
    10     1    10 1
    11     1    11 1
    12     2    12 1
    13     3    13 1
    14     3    14 1
    15     4    15 1
    16     4    16 1
    17     5    17 1
    18     5    18 1
    19     6    19 1
    20     6    20 1
    21     7    21 1
    22     8    22 1
@<TRIPOS>SUBSTRUCTURE
     1 4DX         1 TEMP              0 ****  ****    0 ROOT
