@<TRIPOS>MOLECULE
molecule
   49    49     1     0     0
SMALL
bcc


@<TRIPOS>ATOM
      1 C1           0.0000     0.0000     0.0000 ca         1 4DY      -0.095300
      2 C2           1.3830     0.0000     0.0000 ca         1 4DY      -0.193000
      3 C3           2.0750     0.0000     1.2000 ca         1 4DY       0.124100
      4 C4           1.3760    -0.0010     2.4030 ca         1 4DY       0.092100
      5 C5          -0.0090    -0.0020     2.3960 ca         1 4DY      -0.147000
      6 C40         -6.3390    -8.4150    -6.5380 c3         1 4DY      -0.084100
      7 C38         -5.4080    -7.7290    -7.5410 c3         1 4DY      -0.043500
      8 C44         -6.0600    -7.7300    -8.9250 c3         1 4DY      -0.084100
      9 C37         -5.1580    -6.3080    -7.1040 c2         1 4DY      -0.169200
     10 C36         -3.9370    -5.9080    -6.8470 c2         1 4DY      -0.179200
     11 C33         -3.6870    -4.4870    -6.4100 c3         1 4DY      -0.045200
     12 C30         -2.9240    -4.4880    -5.0840 c3         1 4DY      -0.081400
     13 C27         -2.6700    -3.0460    -4.6420 c3         1 4DY      -0.067400
     14 C24         -1.9070    -3.0460    -3.3150 c3         1 4DY      -0.157400
     15 C22         -1.6570    -1.6260    -2.8790 c          1 4DY       0.655100
     16 O23         -2.0500    -0.7040    -3.5610 o          1 4DY      -0.608100
     17 N21         -0.9950    -1.3800    -1.7300 ns         1 4DY      -0.589900
     18 C17         -0.7520     0.0010    -1.3060 c3         1 4DY       0.161300
     19 C6          -0.6950    -0.0070     1.1950 ca         1 4DY      -0.133000
     20 O10          2.0520    -0.0020     3.5830 oh         1 4DY      -0.498100
     21 O12          3.4350    -0.0010     1.2020 os         1 4DY      -0.310900
     22 C13          4.0860     0.0000    -0.0700 c3         1 4DY       0.125700
     23 H2           1.9240     0.0010    -0.9380 ha         1 4DY       0.145000
     24 H5          -0.5560    -0.0050     3.3320 ha         1 4DY       0.143000
     25 H40         -5.8630    -8.4440    -5.5660 hc         1 4DY       0.034367
     26 H6T         -6.5460    -9.4250    -6.8700 hc         1 4DY       0.034367
     27 H6S         -7.2670    -7.8600    -6.4700 hc         1 4DY       0.034367
     28 H38         -4.4670    -8.2650    -7.5850 hc         1 4DY       0.050700
     29 H6U         -6.2220    -8.7520    -9.2470 hc         1 4DY       0.034367
     30 H6V         -7.0100    -7.2110    -8.8780 hc         1 4DY       0.034367
     31 H44         -5.4090    -7.2280    -9.6310 hc         1 4DY       0.034367
     32 H37         -5.9870    -5.6190    -7.0030 ha         1 4DY       0.126000
     33 H36         -3.1080    -6.5980    -6.9490 ha         1 4DY       0.123000
     34 H33         -4.6340    -3.9770    -6.2820 hc         1 4DY       0.048700
     35 H6R         -3.1010    -3.9760    -7.1640 hc         1 4DY       0.048700
     36 H6Q         -3.5110    -4.9990    -4.3300 hc         1 4DY       0.040200
     37 H30         -1.9780    -4.9990    -5.2120 hc         1 4DY       0.040200
     38 H27         -2.0830    -2.5350    -5.3960 hc         1 4DY       0.058700
     39 H6P         -3.6170    -2.5350    -4.5140 hc         1 4DY       0.058700
     40 H6O         -0.9600    -3.5560    -3.4440 hc         1 4DY       0.058700
     41 H24         -2.4930    -3.5570    -2.5620 hc         1 4DY       0.058700
     42 H21         -0.6770    -2.1410    -1.1640 hn         1 4DY       0.316500
     43 H6N         -0.1650     0.5120    -2.0600 h1         1 4DY       0.059700
     44 H17         -1.6990     0.5120    -1.1780 h1         1 4DY       0.059700
     45 H6          -1.7780    -0.0070     1.1900 ha         1 4DY       0.139000
     46 H10          1.8320    -0.7790     4.0700 ho         1 4DY       0.416000
     47 H6M          3.7840     0.8780    -0.6300 h1         1 4DY       0.042367
     48 H6L          5.1590     0.0150     0.0730 h1         1 4DY       0.042367
     49 H13          3.8070    -0.8910    -0.6190 h1         1 4DY       0.042367
@<TRIPOS>BOND
     1     6     7 1
     2    12    11 1
     3    12    13 1
     4     9     7 1
     5     9    10 2
     6    11    10 1
     7     7     8 1
     8    14    13 1
     9    14    15 1
    10     5    19 ar
    11     5     4 ar
    12    19     1 ar
    13    17    15 1
    14    17    18 1
    15    15    16 2
    16    20     4 1
    17     4     3 ar
    18     1    18 1
    19     1     2 ar
    20     3     2 ar
    21     3    21 1
    22    21    22 1
    23     2    23 1
    24     5    24 1
    25     6    25 1
    26     6    26 1
    27     6    27 1
    28     7    28 1
    29     8    29 1
    30     8    30 1
    31     8    31 1
    32     9    32 1
    33    10    33 1
    34    11    34 1
    35    11    35 1
    36    12    36 1
    37    12    37 1
    38    13    38 1
    39    13    39 1
    40    14    40 1
    41    14    41 1
    42    17    42 1
    43    18    43 1
    44    18    44 1
    45    19    45 1
    46    20    46 1
    47    22    47 1
    48    22    48 1
    49    22    49 1
@<TRIPOS>SUBSTRUCTURE
     1 4DY         1 TEMP              0 ****  ****    0 ROOT
