@<TRIPOS>MOLECULE
4DY
   49    51     1     0     0
SMALL
bcc


@<TRIPOS>ATOM
      1 C1           0.0000     0.0000     0.0000 ca         1 4DY      -0.098000
      2 C2           1.3830     0.0000     0.0000 ca         1 4DY      -0.176000
      3 C3           2.0750     0.0000     1.2000 ca         1 4DY       0.080000
      4 C4           1.3760    -0.0010     2.4030 ca         1 4DY       0.059000
      5 C5          -0.0090    -0.0020     2.3960 ca         1 4DY      -0.129000
      6 C40         -6.3390    -8.4150    -6.5380 c3         1 4DY      -0.120000
      7 C38         -5.4080    -7.7290    -7.5410 DU         1 4DY      -0.108000
      8 C44         -6.0600    -7.7300    -8.9250 c3         1 4DY      -0.120000
      9 C37         -5.1580    -6.3080    -7.1040 c2         1 4DY      -0.212000
     10 C36         -3.9370    -5.9080    -6.8470 c2         1 4DY      -0.213000
     11 C33         -3.6870    -4.4870    -6.4100 DU         1 4DY      -0.107000
     12 C30         -2.9240    -4.4880    -5.0840 c3         1 4DY      -0.102000
     13 C27         -2.6700    -3.0460    -4.6420 c3         1 4DY      -0.099000
     14 C24         -1.9070    -3.0460    -3.3150 c3         1 4DY      -0.125000
     15 C22         -1.6570    -1.6260    -2.8790 c2         1 4DY       0.213000
     16 O23         -2.0500    -0.7040    -3.5610 o          1 4DY      -0.408000
     17 N21         -0.9950    -1.3800    -1.7300 ns         1 4DY      -0.014000
     18 C17         -0.7520     0.0010    -1.3060 c3         1 4DY      -0.009000
     19 C6          -0.6950    -0.0070     1.1950 ca         1 4DY      -0.102000
     20 O10          2.0520    -0.0020     3.5830 oh         1 4DY      -0.232000
     21 O12          3.4350    -0.0010     1.2020 os         1 4DY      -0.173000
     22 C13          4.0860     0.0000    -0.0700 c3         1 4DY       0.050000
     23 H2           1.9240     0.0010    -0.9380 ha         1 4DY       0.128000
     24 H5          -0.5560    -0.0050     3.3320 ha         1 4DY       0.115000
     25 H40         -5.7640    -8.7570    -5.6870 hc         1 4DY       0.048167
     26 H6T         -6.8200    -9.2610    -7.0130 hc         1 4DY       0.048167
     27 H6S         -7.0930    -7.7110    -6.2060 hc         1 4DY       0.048167
     28 H38         -4.4670    -8.2650    -7.5850 ha         1 4DY       0.087000
     29 H6U         -6.2670    -8.7500    -9.2260 hc         1 4DY       0.048167
     30 H6V         -6.9860    -7.1700    -8.8890 hc         1 4DY       0.048167
     31 H44         -5.3880    -7.2720    -9.6410 hc         1 4DY       0.048167
     32 H37         -5.1760    -7.1600    -6.4350 DU         1 4DY       0.192000
     33 H36         -3.9190    -5.0560    -7.5170 DU         1 4DY       0.173000
     34 H33         -4.6340    -3.9770    -6.2820 ha         1 4DY       0.064500
     35 H6R         -3.1000    -3.9760    -7.1640 ha         1 4DY       0.064500
     36 H6Q         -3.5110    -4.9990    -4.3300 hc         1 4DY       0.056500
     37 H30         -1.9780    -4.9990    -5.2120 hc         1 4DY       0.056500
     38 H27         -2.0830    -2.5350    -5.3960 hc         1 4DY       0.069500
     39 H6P         -3.6170    -2.5350    -4.5140 hc         1 4DY       0.069500
     40 H6O         -0.9600    -3.5560    -3.4440 hc         1 4DY       0.066000
     41 H24         -2.4930    -3.5570    -2.5620 hc         1 4DY       0.066000
     42 H21         -0.7000    -2.1410    -1.1510 hn         1 4DY       0.090000
     43 H6N         -0.1650     0.5120    -2.0600 h1         1 4DY       0.069000
     44 H17         -1.6990     0.5110    -1.1780 h1         1 4DY       0.069000
     45 H6          -1.7780    -0.0070     1.1900 ha         1 4DY       0.111000
     46 H10          1.8320    -0.7790     4.0710 ho         1 4DY       0.198000
     47 H6M          3.7840     0.8780    -0.6300 h1         1 4DY       0.037333
     48 H6L          5.1590     0.0140     0.0730 h1         1 4DY       0.037333
     49 H13          3.8070    -0.8910    -0.6190 h1         1 4DY       0.037333
@<TRIPOS>BOND
     1     1     2 1   
     2     1    18 1   
     3     1    19 1   
     4     2     3 1   
     5     2    23 1   
     6     3     4 1   
     7     3    21 1   
     8     4     5 1   
     9     4    20 1   
    10     5    19 1   
    11     5    24 1   
    12     6     7 1   
    13     6    25 1   
    14     6    26 1   
    15     6    27 1   
    16     7     8 1   
    17     7     9 1   
    18     7    28 1   
    19     7    32 1   
    20     8    29 1   
    21     8    30 1   
    22     8    31 1   
    23     9    10 1   
    24     9    32 1   
    25    10    11 1   
    26    10    33 1   
    27    11    12 1   
    28    11    33 1   
    29    11    34 1   
    30    11    35 1   
    31    12    13 1   
    32    12    36 1   
    33    12    37 1   
    34    13    14 1   
    35    13    38 1   
    36    13    39 1   
    37    14    15 1   
    38    14    40 1   
    39    14    41 1   
    40    15    16 1   
    41    15    17 1   
    42    17    18 1   
    43    17    42 1   
    44    18    43 1   
    45    18    44 1   
    46    19    45 1   
    47    20    46 1   
    48    21    22 1   
    49    22    47 1   
    50    22    48 1   
    51    22    49 1   
@<TRIPOS>SUBSTRUCTURE
     1 4DY         1 TEMP              0 ****  ****    0 ROOT
