@<TRIPOS>MOLECULE
4DZ
   39    43     1     0     0
SMALL
bcc


@<TRIPOS>ATOM
      1 C7           0.0000     0.0000     0.0000 ca         1 4DZ      -0.043500
      2 C6           2.0860     0.0000     1.1880 ca         1 4DZ      -0.043500
      3 C1           2.1790     0.0010     3.5510 cg         1 4DZ       0.250800
      4 C5           1.3810     0.0000     0.0000 ca         1 4DZ      -0.111000
      5 C4          -6.0250     0.4910     5.8040 ca         1 4DZ      -0.097000
      6 C3          -6.0650     0.4140     7.1890 ca         1 4DZ      -0.099000
      7 C22         -1.2710    -0.2990    10.0920 ca         1 4DZ      -0.031600
      8 C11         -0.0640    -0.3970     9.4110 ca         1 4DZ      -0.094000
      9 C12         -2.4520    -0.1250     9.4030 ca         1 4DZ      -0.093000
     10 C18         -2.4340    -0.0450     8.0090 ca         1 4DZ       0.005000
     11 C15         -3.6810     0.1400     7.2520 ca         1 4DZ      -0.034000
     12 C8          -4.9070     0.2400     7.9140 ca         1 4DZ      -0.098000
     13 C17         -1.2060    -0.1440     7.3220 ca         1 4DZ       0.015000
     14 C10         -0.0230    -0.3220     8.0490 ca         1 4DZ      -0.097000
     15 C21         -1.1770    -0.0620     5.8620 ca         1 4DZ      -0.284200
     16 N27         -0.1590    -0.1230     4.9410 na         1 4DZ       0.303700
     17 C23         -0.7290     0.0150     3.7040 cc         1 4DZ       0.166400
     18 C19          0.0000     0.0080     2.4240 ca         1 4DZ       0.003100
     19 C14         -0.7040     0.0070     1.2050 ca         1 4DZ       0.007000
     20 C13          1.4080     0.0020     2.4080 ca         1 4DZ       0.007000
     21 N24          2.4990    -0.0170     4.4980 n1         1 4DZ      -0.359800
     22 N26         -2.0280     0.1550     3.8390 nd         1 4DZ      -0.463100
     23 C20         -2.3550     0.1030     5.1410 ca         1 4DZ       0.071400
     24 C16         -3.6410     0.2120     5.8460 ca         1 4DZ       0.024000
     25 C9          -4.8290     0.3890     5.1320 ca         1 4DZ      -0.079000
     26 H1          -0.5420    -0.0000    -0.9380 ha         1 4DZ       0.117000
     27 H2           3.1690    -0.0000     1.1760 ha         1 4DZ       0.117000
     28 H3           1.9230    -0.0060    -0.9380 ha         1 4DZ       0.115000
     29 H4          -6.9410     0.6270     5.2420 ha         1 4DZ       0.104000
     30 H5          -7.0120     0.4950     7.7090 ha         1 4DZ       0.102000
     31 H6           0.8600    -0.5200     9.9630 ha         1 4DZ       0.115000
     32 H7          -3.3850    -0.0300     9.9430 ha         1 4DZ       0.126000
     33 H8          -4.9490     0.1820     8.9950 ha         1 4DZ       0.110000
     34 H9           0.9250    -0.4000     7.5300 ha         1 4DZ       0.108000
     35 H10          0.8130    -0.2410     5.1460 hn         1 4DZ       0.163700
     36 H12         -4.8090     0.4500     4.0500 ha         1 4DZ       0.130000
     37 C2          -2.1350     0.0120     1.2020 cg         1 4DZ       0.250800
     38 Cl          -1.2930    -0.3990    11.8250 cl         1 4DZ      -0.026400
     39 N25         -3.2710     0.0330     1.2100 n1         1 4DZ      -0.359800
@<TRIPOS>BOND
     1     1     4 ar  
     2     1    19 ar  
     3     1    26 1   
     4     2     4 ar  
     5     2    20 ar  
     6     2    27 1   
     7     3    20 1   
     8     3    21 3   
     9     4    28 1   
    10     5     6 ar  
    11     5    25 ar  
    12     5    29 1   
    13     6    12 ar  
    14     6    30 1   
    15     7     8 ar  
    16     7     9 ar  
    17     7    38 1   
    18     8    14 ar  
    19     8    31 1   
    20     9    10 ar  
    21     9    32 1   
    22    10    11 ar  
    23    10    13 ar  
    24    11    12 ar  
    25    11    24 ar  
    26    12    33 1   
    27    13    14 ar  
    28    13    15 ar  
    29    14    34 1   
    30    15    16 1   
    31    15    23 ar  
    32    16    17 1   
    33    16    35 1   
    34    17    18 1   
    35    17    22 2   
    36    18    19 ar  
    37    18    20 ar  
    38    19    37 1   
    39    22    23 1   
    40    23    24 ar  
    41    24    25 ar  
    42    25    36 1   
    43    37    39 3   
@<TRIPOS>SUBSTRUCTURE
     1 4DZ         1 TEMP              0 ****  ****    0 ROOT
