@<TRIPOS>MOLECULE
4E1
   29    32     1     0     0
SMALL
bcc


@<TRIPOS>ATOM
      1 C4          0.0430   -0.0260   -0.0150 ca        1 4E1     -0.167300
      2 C5          1.4550   -0.0280    0.0020 ca        1 4E1     -0.106000
      3 C6         -0.7410   -0.0450   -1.2030 ca        1 4E1     -0.010200
      4 N1         -2.0830   -0.0080    1.2790 nb        1 4E1     -0.684000
      5 C7         -2.1640   -0.0340   -1.1230 cp        1 4E1     -0.175300
      6 C8         -2.6570   -0.0140   -2.4820 cp        1 4E1     -0.041000
      7 C9         -3.9300    0.0400   -3.0340 ca        1 4E1     -0.029000
      8 C10        -4.0510    0.0570   -4.4230 ca        1 4E1     -0.183000
      9 C11        -2.9260    0.0290   -5.2530 ca        1 4E1     -0.083000
     10 C12        -1.6330   -0.0120   -4.7340 ca        1 4E1     -0.016100
     11 C13        -1.4880   -0.0320   -3.3420 ca        1 4E1     -0.003200
     12 C14        -2.7950   -0.0380    0.1600 ca        1 4E1      0.458800
     13 C15        -4.3460   -0.1090    0.2020 c         1 4E1      0.824100
     14 I          -0.0340   -0.0330   -5.9680 i         1 4E1     -0.192900
     15 N          -0.3360   -0.0920   -2.5460 na        1 4E1     -0.180300
     16 O          -4.9670    0.9260   -0.1510 o         1 4E1     -0.799800
     17 O1         -4.8520   -1.2090    0.5290 o         1 4E1     -0.799800
     18 C3         -0.7010    0.0040    1.2110 ca        1 4E1      0.430600
     19 C           2.1380    0.0040    1.1950 ca        1 4E1     -0.162000
     20 C1          1.4250    0.0400    2.4140 ca        1 4E1     -0.140000
     21 C2          0.0520    0.0400    2.4310 ca        1 4E1     -0.171300
     22 H1          2.0040   -0.0580   -0.9510 ha        1 4E1      0.111000
     23 H2         -4.8090    0.0850   -2.3600 ha        1 4E1      0.200000
     24 H3         -5.0520    0.0980   -4.8780 ha        1 4E1      0.128000
     25 H4         -3.0720    0.0450   -6.3450 ha        1 4E1      0.124000
     26 H5          0.5810    0.0700   -2.8660 hn        1 4E1      0.293700
     27 H7          3.2360    0.0020    1.2140 ha        1 4E1      0.115000
     28 H8          1.9890    0.0660    3.3580 ha        1 4E1      0.116000
     29 H9         -0.4960    0.0650    3.3850 ha        1 4E1      0.144000
@<TRIPOS>BOND
     1    1    2 ar  
     2    1    3 ar  
     3    1   18 ar  
     4    2   19 ar  
     5    2   22 1   
     6    3    5 ar  
     7    3   15 1   
     8    4   12 ar  
     9    4   18 ar  
    10    5    6 1   
    11    5   12 ar  
    12    6    7 ar  
    13    6   11 ar  
    14    7    8 ar  
    15    7   23 1   
    16    8    9 ar  
    17    8   24 1   
    18    9   10 ar  
    19    9   25 1   
    20   10   11 ar  
    21   10   14 1   
    22   11   15 1   
    23   12   13 1   
    24   13   16 1   
    25   13   17 1   
    26   15   26 1   
    27   18   21 ar  
    28   19   20 ar  
    29   19   27 1   
    30   20   21 ar  
    31   20   28 1   
    32   21   29 1   
@<TRIPOS>SUBSTRUCTURE
     1 4E1         1 TEMP              0 ****  ****    0 ROOT
