@<TRIPOS>MOLECULE
molecule
   29    32     1     0     0
SMALL
bcc


@<TRIPOS>ATOM
      1 C4           0.0000     0.0000     0.0000 ca         1 4E1      -0.179300
      2 C5           1.4010     0.0000     0.0000 ca         1 4E1      -0.107000
      3 C6          -0.7340     0.0010    -1.2080 ca         1 4E1       0.003800
      4 N1          -2.0370    -0.0010     1.2510 nb         1 4E1      -0.700000
      5 C7          -2.1310     0.0000    -1.1230 cp         1 4E1      -0.192300
      6 C8          -2.6310     0.0010    -2.5060 cp         1 4E1      -0.045000
      7 C9          -3.9080     0.0020    -3.0680 ca         1 4E1      -0.023000
      8 C10         -4.0520     0.0020    -4.4380 ca         1 4E1      -0.182000
      9 C11         -2.9340     0.0020    -5.2590 ca         1 4E1      -0.081000
     10 C12         -1.6660     0.0020    -4.7170 ca         1 4E1       0.024900
     11 C13         -1.4990     0.0010    -3.3360 ca         1 4E1      -0.001200
     12 C14         -2.7510    -0.0000     0.1430 ca         1 4E1       0.513800
     13 C15         -4.2290     0.0070     0.2290 c          1 4E1       0.785100
     14 I            0.0100     0.0010    -5.9750 i          1 4E1      -0.228900
     15 N           -0.3740     0.0010    -2.5310 na         1 4E1      -0.170300
     16 O           -4.8450     1.0290     0.0060 o          1 4E1      -0.813300
     17 O1          -4.8890    -1.1210     0.5540 o          1 4E1      -0.813300
     18 C3          -0.7020    -0.0060     1.2330 ca         1 4E1       0.455600
     19 C            2.0770     0.0000     1.1830 ca         1 4E1      -0.163000
     20 C1           1.3920    -0.0010     2.3950 ca         1 4E1      -0.133000
     21 C2           0.0310    -0.0070     2.4330 ca         1 4E1      -0.168300
     22 H1           1.9450     0.0010    -0.9370 ha         1 4E1       0.110000
     23 H2          -4.7830     0.0020    -2.4300 ha         1 4E1       0.185000
     24 H3          -5.0420     0.0020    -4.8760 ha         1 4E1       0.131000
     25 H4          -3.0580     0.0020    -6.3350 ha         1 4E1       0.127000
     26 H5           0.5690     0.0010    -2.8670 hn         1 4E1       0.294700
     27 H7           3.1600     0.0050     1.1810 ha         1 4E1       0.111000
     28 H8           1.9510    -0.0010     3.3230 ha         1 4E1       0.115000
     29 H9          -0.4850    -0.0070     3.3850 ha         1 4E1       0.145000
@<TRIPOS>BOND
     1    20    19 ar
     2    20    21 ar
     3    19     2 ar
     4    21    18 ar
     5     2     1 ar
     6    18     1 ar
     7    18     4 ar
     8     1     3 ar
     9     4    12 ar
    10     3    15 1
    11     3     5 ar
    12    15    11 1
    13    12     5 ar
    14    12    13 1
    15    16    13 1
    16     5     6 1
    17    13    17 1
    18    11     6 ar
    19    11    10 ar
    20     6     7 ar
    21    14    10 1
    22    10     9 ar
    23     7     8 ar
    24     9     8 ar
    25     2    22 1
    26     7    23 1
    27     8    24 1
    28     9    25 1
    29    15    26 1
    30    19    27 1
    31    20    28 1
    32    21    29 1
@<TRIPOS>SUBSTRUCTURE
     1 4E1         1 TEMP              0 ****  ****    0 ROOT
