@<TRIPOS>MOLECULE
4E2
   29    32     1     0     0
SMALL
bcc


@<TRIPOS>ATOM
      1 OAA        -0.0260    0.1530    0.0980 o         1 4E2     -0.795800
      2 CAM         1.2260    0.0500    0.1370 c         1 4E2      0.825100
      3 OAB         1.9510    0.0520    1.1590 o         1 4E2     -0.795800
      4 CAP         1.9580   -0.0170   -1.2330 ca        1 4E2      0.468800
      5 NAK         2.5040   -1.1500   -1.6610 nb        1 4E2     -0.688000
      6 CAQ         3.1900   -1.1690   -2.8580 ca        1 4E2      0.446600
      7 CAI         3.7710   -2.4010   -3.3080 ca        1 4E2     -0.174300
      8 CAG         4.4740   -2.4670   -4.4850 ca        1 4E2     -0.113000
      9 CAN         4.6470   -1.3200   -5.2920 ca        1 4E2     -0.002100
     10 IAD         5.6930   -1.4700   -7.0160 i         1 4E2     -0.187900
     11 CAJ         4.1060   -0.1170   -4.9020 ca        1 4E2     -0.061000
     12 CAR         3.3750   -0.0190   -3.6980 ca        1 4E2     -0.178300
     13 CAU         2.7730    1.1830   -3.2300 ca        1 4E2     -0.005200
     14 CAV         2.0460    1.1850   -2.0010 cp        1 4E2     -0.179300
     15 CAS         1.5280    2.5230   -1.8250 cp        1 4E2     -0.029000
     16 CAH         0.7290    3.1240   -0.8580 ca        1 4E2     -0.045000
     17 CAE         0.3990    4.4690   -1.0080 ca        1 4E2     -0.169000
     18 CAF         0.8460    5.2180   -2.1030 ca        1 4E2     -0.110000
     19 CAO         1.6380    4.6380   -3.0920 ca        1 4E2     -0.020600
     20 CLA         2.1690    5.5450   -4.4350 cl        1 4E2     -0.133400
     21 CAT         1.9870    3.2870   -2.9670 ca        1 4E2     -0.033200
     22 NAL         2.7780    2.4690   -3.7870 na        1 4E2     -0.173300
     23 H2          3.6440   -3.3000   -2.6840 ha        1 4E2      0.150000
     24 H3          4.9100   -3.4250   -4.8070 ha        1 4E2      0.130000
     25 H4          4.2350    0.7860   -5.5190 ha        1 4E2      0.124000
     26 H5          0.3640    2.5140   -0.0090 ha        1 4E2      0.199000
     27 H6         -0.2300    4.9580   -0.2510 ha        1 4E2      0.129000
     28 H7          0.5630    6.2780   -2.1880 ha        1 4E2      0.129000
     29 H8          3.0390    2.6890   -4.7110 hn        1 4E2      0.294700
@<TRIPOS>BOND
     1    1    2 1   
     2    2    3 1   
     3    2    4 1   
     4    4    5 ar  
     5    4   14 ar  
     6    5    6 ar  
     7    6    7 ar  
     8    6   12 ar  
     9    7    8 ar  
    10    7   23 1   
    11    8    9 ar  
    12    8   24 1   
    13    9   10 1   
    14    9   11 ar  
    15   11   12 ar  
    16   11   25 1   
    17   12   13 ar  
    18   13   14 ar  
    19   13   22 1   
    20   14   15 1   
    21   15   16 ar  
    22   15   21 ar  
    23   16   17 ar  
    24   16   26 1   
    25   17   18 ar  
    26   17   27 1   
    27   18   19 ar  
    28   18   28 1   
    29   19   20 1   
    30   19   21 ar  
    31   21   22 1   
    32   22   29 1   
@<TRIPOS>SUBSTRUCTURE
     1 4E2         1 TEMP              0 ****  ****    0 ROOT
