@<TRIPOS>MOLECULE
molecule
   29    32     1     0     0
SMALL
bcc


@<TRIPOS>ATOM
      1 OAA          0.0000     0.0000     0.0000 o          1 4E2      -0.809800
      2 CAM          1.2150     0.0000     0.0000 c          1 4E2       0.783100
      3 OAB          1.8880     0.0000     1.1660 o          1 4E2      -0.809800
      4 CAP          1.9540    -0.0070    -1.2820 ca         1 4E2       0.524800
      5 NAK          2.5200    -1.1230    -1.6980 nb         1 4E2      -0.703000
      6 CAQ          3.1990    -1.1880    -2.8460 ca         1 4E2       0.468600
      7 CAI          3.7920    -2.3940    -3.2620 ca         1 4E2      -0.167300
      8 CAG          4.4800    -2.4410    -4.4340 ca         1 4E2      -0.111000
      9 CAN          4.6120    -1.3090    -5.2370 ca         1 4E2       0.030900
     10 IAD          5.6820    -1.4320    -7.0330 i          1 4E2      -0.219900
     11 CAJ          4.0500    -0.1230    -4.8670 ca         1 4E2      -0.068000
     12 CAR          3.3340    -0.0380    -3.6660 ca         1 4E2      -0.187300
     13 CAU          2.7390     1.1750    -3.2510 ca         1 4E2       0.009800
     14 CAV          2.0370     1.1770    -2.0400 cp         1 4E2      -0.195300
     15 CAS          1.5260     2.5450    -1.8590 cp         1 4E2      -0.038000
     16 CAH          0.7710     3.1670    -0.8670 ca         1 4E2      -0.037000
     17 CAE          0.4440     4.5000    -0.9880 ca         1 4E2      -0.170000
     18 CAF          0.8630     5.2240    -2.0940 ca         1 4E2      -0.104000
     19 CAO          1.6110     4.6230    -3.0850 ca         1 4E2      -0.008600
     20 ClA          2.1280     5.5440    -4.4620 cl         1 4E2      -0.150400
     21 CAT          1.9520     3.2770    -2.9790 ca         1 4E2      -0.019200
     22 NAL          2.6840     2.4330    -3.7940 na         1 4E2      -0.166300
     23 H2           3.7000    -3.2840    -2.6510 ha         1 4E2       0.152000
     24 H3           4.9330    -3.3730    -4.7490 ha         1 4E2       0.128000
     25 H4           4.1590     0.7500    -5.4980 ha         1 4E2       0.123000
     26 H5           0.4420     2.6040    -0.0020 ha         1 4E2       0.185000
     27 H6          -0.1430     4.9840    -0.2170 ha         1 4E2       0.132000
     28 H7           0.6010     6.2720    -2.1810 ha         1 4E2       0.130000
     29 H8           3.1120     2.7020    -4.6580 hn         1 4E2       0.295700
@<TRIPOS>BOND
     1     8     7 ar  
     2     8     9 ar  
     3     7     6 ar  
     4    10     9 1   
     5     9    11 ar  
     6     6     5 ar  
     7     6    12 ar  
     8     5     4 ar  
     9     1     2 1   
    10    11    12 ar  
    11    12    13 ar  
    12     4     2 1   
    13     4    14 ar  
    14     2     3 1   
    15    13    14 ar  
    16    13    22 1   
    17    14    15 1   
    18    22    21 1   
    19    15    21 ar  
    20    15    16 ar  
    21    21    19 ar  
    22    16    17 ar  
    23    19    20 1   
    24    19    18 ar  
    25    17    18 ar  
    26     7    23 1   
    27     8    24 1   
    28    11    25 1   
    29    16    26 1   
    30    17    27 1   
    31    18    28 1   
    32    22    29 1   
@<TRIPOS>SUBSTRUCTURE
     1 4E2         1 TEMP              0 ****  ****    0 ROOT
