@<TRIPOS>MOLECULE
molecule
   29    32     1     0     0
SMALL
bcc


@<TRIPOS>ATOM
      1 OAA          0.0000     0.0000     0.0000 o          1 4E3      -0.809800
      2 CAM          1.2150     0.0000     0.0000 c          1 4E3       0.783100
      3 OAB          1.8880     0.0000     1.1650 o          1 4E3      -0.809800
      4 CAP          1.9540    -0.0040    -1.2820 ca         1 4E3       0.523800
      5 NAK          2.5200    -1.1210    -1.7000 nb         1 4E3      -0.701000
      6 CAQ          3.1980    -1.1820    -2.8470 ca         1 4E3       0.467600
      7 CAI          3.7930    -2.3890    -3.2650 ca         1 4E3      -0.167300
      8 CAG          4.4820    -2.4340    -4.4370 ca         1 4E3      -0.111000
      9 CAN          4.6110    -1.3000    -5.2390 ca         1 4E3       0.031900
     10 CAJ          4.0510    -0.1150    -4.8670 ca         1 4E3      -0.068000
     11 CAR          3.3330    -0.0320    -3.6660 ca         1 4E3      -0.187300
     12 CAU          2.7380     1.1800    -3.2490 ca         1 4E3       0.009800
     13 CAV          2.0360     1.1810    -2.0390 cp         1 4E3      -0.193300
     14 CAS          1.5230     2.5470    -1.8570 cp         1 4E3      -0.044000
     15 CAH          0.7670     3.1690    -0.8640 ca         1 4E3      -0.026000
     16 CAE          0.4390     4.5010    -0.9850 ca         1 4E3      -0.178000
     17 CAF          0.8590     5.2270    -2.0900 ca         1 4E3      -0.083000
     18 CAO          1.6070     4.6270    -3.0800 ca         1 4E3      -0.051900
     19 BrA          2.1710     5.6320    -4.5800 br         1 4E3      -0.142100
     20 CAT          1.9490     3.2810    -2.9770 ca         1 4E3      -0.004200
     21 NAL          2.6820     2.4380    -3.7920 na         1 4E3      -0.166300
     22 I            5.6820    -1.4220    -7.0360 i          1 4E3      -0.220900
     23 H2           3.7020    -3.2790    -2.6540 ha         1 4E3       0.152000
     24 H3           4.9360    -3.3650    -4.7530 ha         1 4E3       0.128000
     25 H4           4.1580     0.7590    -5.4990 ha         1 4E3       0.123000
     26 H5           0.4380     2.6050     0.0000 ha         1 4E3       0.185000
     27 H6          -0.1490     4.9840    -0.2140 ha         1 4E3       0.132000
     28 H7           0.5950     6.2740    -2.1760 ha         1 4E3       0.130000
     29 H8           3.1100     2.7080    -4.6560 hn         1 4E3       0.296700
@<TRIPOS>BOND
     1     8     7 ar
     2     8     9 ar
     3     7     6 ar
     4    22     9 1
     5     9    10 ar
     6     6     5 ar
     7     6    11 ar
     8     5     4 ar
     9     1     2 1
    10    10    11 ar
    11    11    12 ar
    12     4     2 1
    13     4    13 ar
    14     2     3 1
    15    12    13 ar
    16    12    21 1
    17    13    14 1
    18    21    20 1
    19    14    20 ar
    20    14    15 ar
    21    20    18 ar
    22    15    16 ar
    23    18    19 1
    24    18    17 ar
    25    16    17 ar
    26     7    23 1
    27     8    24 1
    28    10    25 1
    29    15    26 1
    30    16    27 1
    31    17    28 1
    32    21    29 1
@<TRIPOS>SUBSTRUCTURE
     1 4E3         1 TEMP              0 ****  ****    0 ROOT
