@<TRIPOS>MOLECULE
4E3
   29    32     1     0     0
SMALL
bcc


@<TRIPOS>ATOM
      1 OAA        -0.0220    0.1610    0.1070 o         1 4E3     -0.796300
      2 CAM         1.2300    0.0520    0.1400 c         1 4E3      0.825100
      3 OAB         1.9590    0.0500    1.1590 o         1 4E3     -0.796300
      4 CAP         1.9560   -0.0150   -1.2330 ca        1 4E3      0.468800
      5 NAK         2.5060   -1.1470   -1.6600 nb        1 4E3     -0.688000
      6 CAQ         3.1900   -1.1640   -2.8590 ca        1 4E3      0.446600
      7 CAI         3.7770   -2.3940   -3.3080 ca        1 4E3     -0.174300
      8 CAG         4.4780   -2.4590   -4.4860 ca        1 4E3     -0.113000
      9 CAN         4.6430   -1.3130   -5.2960 ca        1 4E3     -0.002100
     10 CAJ         4.0960   -0.1120   -4.9070 ca        1 4E3     -0.062000
     11 CAR         3.3680   -0.0150   -3.7020 ca        1 4E3     -0.178300
     12 CAU         2.7610    1.1840   -3.2340 ca        1 4E3     -0.002200
     13 CAV         2.0380    1.1860   -2.0020 cp        1 4E3     -0.179300
     14 CAS         1.5190    2.5230   -1.8270 cp        1 4E3     -0.038000
     15 CAH         0.7210    3.1210   -0.8580 ca        1 4E3     -0.032000
     16 CAE         0.3950    4.4680   -1.0040 ca        1 4E3     -0.179000
     17 CAF         0.8440    5.2160   -2.0980 ca        1 4E3     -0.087000
     18 CAO         1.6330    4.6440   -3.0960 ca        1 4E3     -0.067900
     19 BRA         2.2160    5.6530   -4.5630 br        1 4E3     -0.131100
     20 CAT         1.9750    3.2910   -2.9700 ca        1 4E3     -0.008200
     21 NAL         2.7380    2.4630   -3.8020 na        1 4E3     -0.179300
     22 I           5.6860   -1.4610   -7.0220 i         1 4E3     -0.187900
     23 H2          3.6550   -3.2920   -2.6820 ha        1 4E3      0.150000
     24 H3          4.9190   -3.4160   -4.8060 ha        1 4E3      0.130000
     25 H4          4.2170    0.7890   -5.5280 ha        1 4E3      0.124000
     26 H5          0.3550    2.5090   -0.0100 ha        1 4E3      0.200000
     27 H6         -0.2330    4.9570   -0.2460 ha        1 4E3      0.129000
     28 H7          0.5610    6.2770   -2.1710 ha        1 4E3      0.128000
     29 H8          3.1090    2.7150   -4.6780 hn        1 4E3      0.299700
@<TRIPOS>BOND
     1    1    2 1   
     2    2    3 1   
     3    2    4 1   
     4    4    5 ar  
     5    4   13 ar  
     6    5    6 ar  
     7    6    7 ar  
     8    6   11 ar  
     9    7    8 ar  
    10    7   23 1   
    11    8    9 ar  
    12    8   24 1   
    13    9   10 ar  
    14    9   22 1   
    15   10   11 ar  
    16   10   25 1   
    17   11   12 ar  
    18   12   13 ar  
    19   12   21 1   
    20   13   14 1   
    21   14   15 ar  
    22   14   20 ar  
    23   15   16 ar  
    24   15   26 1   
    25   16   17 ar  
    26   16   27 1   
    27   17   18 ar  
    28   17   28 1   
    29   18   19 1   
    30   18   20 ar  
    31   20   21 1   
    32   21   29 1   
@<TRIPOS>SUBSTRUCTURE
     1 4E3         1 TEMP              0 ****  ****    0 ROOT
