@<TRIPOS>MOLECULE
molecule
   37    37     1     0     0
SMALL
bcc


@<TRIPOS>ATOM
      1 C12          0.0000     0.0000     0.0000 c3         1 4E4      -0.068900
      2 C13          1.5300     0.0000     0.0000 c3         1 4E4      -0.098100
      3 C16         -2.0380    -0.0010     1.4440 c3         1 4E4       0.147400
      4 C15         -0.5100     2.4980     1.4430 c3         1 4E4      -0.098100
      5 C1           0.0430    -3.5950     2.4130 ca         1 4E4      -0.071700
      6 C2           0.1090    -3.5630     3.8040 ca         1 4E4      -0.091000
      7 C6           0.3490    -4.7770     1.7520 ca         1 4E4       0.389200
      8 C4           0.7780    -5.8540     3.7440 ca         1 4E4       0.405600
      9 C3           0.4830    -4.7170     4.4720 ca         1 4E4      -0.234300
     10 C9          -0.0060    -1.2300     2.1540 c          1 4E4       0.681100
     11 C11         -0.5090     0.0000     1.4430 c3         1 4E4      -0.131000
     12 C14          0.0010     1.2490     2.1630 c3         1 4E4      -0.068900
     13 O17         -2.5150    -0.0010     2.7910 oh         1 4E4      -0.602800
     14 N8          -0.3310    -2.4550     1.6930 ns         1 4E4      -0.475100
     15 N5           0.7010    -5.8530     2.4270 nb         1 4E4      -0.678000
     16 H1          -0.3610     0.8840    -0.5110 hc         1 4E4       0.055950
     17 H2          -0.3610    -0.8850    -0.5100 hc         1 4E4       0.055950
     18 H3           1.8910    -0.6660    -0.7750 hc         1 4E4       0.039200
     19 H4           1.8910    -0.3380     0.9640 hc         1 4E4       0.039200
     20 H5           1.8910     1.0040    -0.1890 hc         1 4E4       0.039200
     21 H6          -2.4000     0.8840     0.9330 h1         1 4E4       0.024700
     22 H7          -2.3990    -0.8850     0.9330 h1         1 4E4       0.024700
     23 H8          -1.1530     3.0610     2.1080 hc         1 4E4       0.039200
     24 H9          -1.0700     2.2040     0.5630 hc         1 4E4       0.039200
     25 H10          0.3310     3.1130     1.1470 hc         1 4E4       0.039200
     26 H11         -0.1260    -2.6570     4.3500 ha         1 4E4       0.172000
     27 H12          0.5530    -7.2560     5.3300 hc         1 4E4       0.050700
     28 H13          1.0830    -7.9600     3.7960 hc         1 4E4       0.050700
     29 H14          2.2190    -7.0280     4.7810 hc         1 4E4       0.050700
     30 H15          0.2990    -4.8140     0.6700 h4         1 4E4       0.018100
     31 H16          0.5440    -4.7280     5.5540 ha         1 4E4       0.141000
     32 H17         -0.3600     1.2480     3.1850 hc         1 4E4       0.055950
     33 H18          1.0840     1.2490     2.1630 hc         1 4E4       0.055950
     34 H19         -3.4570     0.0420     2.7920 ho         1 4E4       0.406000
     35 H20         -0.8570    -2.5480     0.8460 hn         1 4E4       0.323500
     36 C7           1.1870    -7.1130     4.4630 c3         1 4E4      -0.138400
     37 O10          0.6920    -1.1190     3.1390 o          1 4E4      -0.586100
@<TRIPOS>BOND
     1     4    12 1   
     2    12    11 1   
     3    37    10 2   
     4    13     3 1   
     5     6     9 ar  
     6     6     5 ar  
     7     9     8 ar  
     8    10    11 1   
     9    10    14 1   
    10    11     3 1   
    11    11     1 1   
    12     5    14 1   
    13     5     7 ar  
    14     8    36 1   
    15     8    15 ar  
    16     1     2 1   
    17     7    15 ar  
    18     1    16 1   
    19     1    17 1   
    20     2    18 1   
    21     2    19 1   
    22     2    20 1   
    23     3    21 1   
    24     3    22 1   
    25     4    23 1   
    26     4    24 1   
    27     4    25 1   
    28     6    26 1   
    29    36    27 1   
    30    36    28 1   
    31    36    29 1   
    32     7    30 1   
    33     9    31 1   
    34    12    32 1   
    35    12    33 1   
    36    13    34 1   
    37    14    35 1   
@<TRIPOS>SUBSTRUCTURE
     1 4E4         1 TEMP              0 ****  ****    0 ROOT
