@<TRIPOS>MOLECULE
4E5
   29    30     1     0     0
SMALL
bcc


@<TRIPOS>ATOM
      1 N            0.0000     0.0000     0.0000 n7         1 4E5      -0.575200
      2 CA           1.4790     0.0000     0.0000 c3         1 4E5      -0.003500
      3 CAM          4.1370     3.5660     2.3530 ca         1 4E5      -0.138000
      4 CAQ         -0.4050    -0.6110     1.2920 c3         1 4E5       0.169800
      5 CAR          0.6220    -0.0320     2.2960 c3         1 4E5      -0.059400
      6 CAY          3.4940     3.4310     1.1350 ca         1 4E5       0.070100
      7 CAZ          4.1260     2.5210     3.2620 ca         1 4E5      -0.098600
      8 C            1.9930    -1.2320    -0.6980 c          1 4E5       0.981600
      9 OXT          3.2570    -1.2720    -1.1460 o          1 4E5      -0.905300
     10 OAA          4.9600     1.8310     5.4230 o          1 4E5      -0.898800
     11 OAC          5.3780     3.8830     4.8160 o          1 4E5      -0.898800
     12 OAU          3.4750     4.5000     0.2310 oh         1 4E5      -0.524100
     13 CB           1.9310     0.0000     1.4720 c3         1 4E5       0.011600
     14 CG           2.7120     1.2510     1.7800 ca         1 4E5      -0.070300
     15 CD1          2.8390     2.2500     0.8250 ca         1 4E5      -0.161000
     16 CD2          3.2400     1.4340     3.0470 ca         1 4E5      -0.098000
     17 O            1.2290    -2.2160    -0.8830 o          1 4E5      -0.905300
     18 H1          -0.3340     0.9100    -0.2480 hn         1 4E5       0.223800
     19 H3           1.8450     0.8910    -0.4960 h1         1 4E5       0.048700
     20 H4           4.6690     4.4810     2.5860 ha         1 4E5       0.127000
     21 H5          -0.5370    -1.6800     1.1730 h1         1 4E5       0.004700
     22 H6          -1.3200    -0.1540     1.6500 h1         1 4E5       0.004700
     23 H7           0.3210     0.9600     2.6070 hc         1 4E5       0.007700
     24 H8           0.7160    -0.6880     3.1530 hc         1 4E5       0.007700
     25 H11          2.7740     5.0900     0.4570 ho         1 4E5       0.373000
     26 H12          2.5250    -0.8810     1.6810 hc         1 4E5       0.058700
     27 H13          2.3550     2.1360    -0.1370 ha         1 4E5       0.130000
     28 H14          3.2170     0.6070     3.7470 ha         1 4E5       0.118000
     29 CAV          4.8630     2.7590     4.5780 c          1 4E5       0.999200
@<TRIPOS>BOND
     1     1     2 1   
     2     1     4 1   
     3     1    18 1   
     4     2     8 1   
     5     2    13 1   
     6     2    19 1   
     7     3     6 ar  
     8     3     7 ar  
     9     3    20 1   
    10     4     5 1   
    11     4    21 1   
    12     4    22 1   
    13     5    13 1   
    14     5    23 1   
    15     5    24 1   
    16     6    12 1   
    17     6    15 ar  
    18     7    16 ar  
    19     7    29 1   
    20     8     9 1   
    21     8    17 1   
    22    10    29 1   
    23    11    29 1   
    24    12    25 1   
    25    13    14 1   
    26    13    26 1   
    27    14    15 ar  
    28    14    16 ar  
    29    15    27 1   
    30    16    28 1   
@<TRIPOS>SUBSTRUCTURE
     1 4E5         1 TEMP              0 ****  ****    0 ROOT
