@<TRIPOS>MOLECULE
4E6
   44    42     1     0     0
SMALL
bcc


@<TRIPOS>ATOM
      1 C1         -0.0930    0.0780    0.4820 c3        1 4E6     -0.092100
      2 C2          1.3700   -0.2740    0.3980 c3        1 4E6     -0.080400
      3 C3          2.0880    0.0180    1.6990 c3        1 4E6     -0.079400
      4 C4          3.5570   -0.3350    1.6090 c3        1 4E6     -0.079400
      5 C5          4.2730   -0.0440    2.9110 c3        1 4E6     -0.079400
      6 C6          5.7420   -0.3970    2.8200 c3        1 4E6     -0.079400
      7 C7          6.4570   -0.1070    4.1230 c3        1 4E6     -0.080400
      8 C8          7.9260   -0.4630    4.0320 c3        1 4E6     -0.078400
      9 C9          8.6700   -0.1810    5.3220 c3        1 4E6     -0.044200
     10 C10         8.9560    1.2640    5.5060 c2        1 4E6     -0.148300
     11 C11        10.0420    1.7250    6.0710 c1        1 4E6     -0.062900
     12 C12        11.0840    2.1890    6.6120 c1        1 4E6     -0.059900
     13 C13        12.1560    2.6880    7.1700 c2        1 4E6     -0.150300
     14 C14        13.2620    1.8620    7.7180 c3        1 4E6     -0.016000
     15 C15        14.5910    2.4560    7.4210 c2        1 4E6     -0.165200
     16 C16        15.5640    2.5790    8.3200 c2        1 4E6     -0.221000
     17 H1         -0.6020   -0.1460   -0.4860 hc        1 4E6      0.032700
     18 H1A        -0.2250    1.1630    0.7080 hc        1 4E6      0.032700
     19 H1B        -0.5940   -0.5110    1.2890 hc        1 4E6      0.032700
     20 H2          1.4830   -1.3610    0.1460 hc        1 4E6      0.038700
     21 H2A         1.8510    0.3080   -0.4320 hc        1 4E6      0.038700
     22 H3          1.6100   -0.5650    2.5300 hc        1 4E6      0.039700
     23 H3A         1.9770    1.1050    1.9520 hc        1 4E6      0.039700
     24 H4          4.0340    0.2480    0.7780 hc        1 4E6      0.039700
     25 H4A         3.6670   -1.4230    1.3550 hc        1 4E6      0.039700
     26 H5          3.7960   -0.6280    3.7410 hc        1 4E6      0.039700
     27 H5A         4.1620    1.0430    3.1660 hc        1 4E6      0.039700
     28 H6          6.2190    0.1890    1.9910 hc        1 4E6      0.040200
     29 H6A         5.8530   -1.4830    2.5640 hc        1 4E6      0.040200
     30 H7          5.9780   -0.6920    4.9520 hc        1 4E6      0.040200
     31 H7A         6.3450    0.9800    4.3780 hc        1 4E6      0.040200
     32 H8          8.4000    0.1060    3.1900 hc        1 4E6      0.044700
     33 H8A         8.0240   -1.5550    3.7910 hc        1 4E6      0.044700
     34 H9          9.6270   -0.7680    5.3290 hc        1 4E6      0.053700
     35 H9A         8.0570   -0.5370    6.1960 hc        1 4E6      0.053700
     36 H10         8.1820    1.9640    5.1430 ha        1 4E6      0.139000
     37 H11        11.6120    3.9560    1.1240 ha        1 4E6      0.000000
     38 H12        11.2720    4.4950    1.3510 ha        1 4E6      0.000000
     39 H13        12.2730    3.7820    7.2700 ha        1 4E6      0.140000
     40 H14        13.2290    0.8220    7.2880 hc        1 4E6      0.059700
     41 H14A       13.1130    1.7630    8.8300 hc        1 4E6      0.059700
     42 H15        14.7310    2.7830    6.3770 ha        1 4E6      0.124000
     43 H16        16.5450    3.0020    8.0660 ha        1 4E6      0.112000
     44 H16A       15.4520    2.2660    9.3670 ha        1 4E6      0.112000
@<TRIPOS>BOND
     1    1    2 1   
     2    1   17 1   
     3    1   18 1   
     4    1   19 1   
     5    2    3 1   
     6    2   20 1   
     7    2   21 1   
     8    3    4 1   
     9    3   22 1   
    10    3   23 1   
    11    4    5 1   
    12    4   24 1   
    13    4   25 1   
    14    5    6 1   
    15    5   26 1   
    16    5   27 1   
    17    6    7 1   
    18    6   28 1   
    19    6   29 1   
    20    7    8 1   
    21    7   30 1   
    22    7   31 1   
    23    8    9 1   
    24    8   32 1   
    25    8   33 1   
    26    9   10 1   
    27    9   34 1   
    28    9   35 1   
    29   10   11 2   
    30   10   36 1   
    31   11   12 2   
    32   12   13 2   
    33   13   14 1   
    34   13   39 1   
    35   14   15 1   
    36   14   40 1   
    37   14   41 1   
    38   15   16 2   
    39   15   42 1   
    40   16   43 1   
    41   16   44 1   
    42   37   38 1   
@<TRIPOS>SUBSTRUCTURE
     1 4E6         1 TEMP              0 ****  ****    0 ROOT
