@<TRIPOS>MOLECULE
molecule
   44    43     1     0     0
SMALL
bcc


@<TRIPOS>ATOM
      1 C1           0.0000     0.0000     0.0000 c3         1 4E6      -0.092100
      2 C2           1.5290     0.0000     0.0000 c3         1 4E6      -0.084400
      3 C3           2.0400     0.0000     1.4430 c3         1 4E6      -0.081400
      4 C4           3.5700     0.0000     1.4410 c3         1 4E6      -0.082400
      5 C5           4.0800     0.0000     2.8840 c3         1 4E6      -0.082400
      6 C6           5.6100    -0.0000     2.8830 c3         1 4E6      -0.081400
      7 C7           6.1210     0.0000     4.3250 c3         1 4E6      -0.082400
      8 C8           7.6510    -0.0000     4.3250 c3         1 4E6      -0.078400
      9 C9           8.1620     0.0010     5.7680 c3         1 4E6      -0.049200
     10 C10          9.6690     0.0010     5.7670 c2         1 4E6      -0.163200
     11 C11         10.3330     0.9440     6.4260 ce         1 4E6      -0.143000
     12 C12         11.8040     0.9430     6.4260 ce         1 4E6      -0.143000
     13 C13         12.4700     1.8860     7.0850 c2         1 4E6      -0.166200
     14 C14         13.9760     1.8850     7.0850 c3         1 4E6       0.002000
     15 C15         14.4790     3.2200     6.5970 c2         1 4E6      -0.143200
     16 C16         15.3110     3.9150     7.3330 c2         1 4E6      -0.215000
     17 H1          -0.3610    -0.0000    -1.0210 hc         1 4E6       0.032367
     18 H1A         -0.3610     0.8850     0.5110 hc         1 4E6       0.032367
     19 H1B         -0.3610    -0.8840     0.5110 hc         1 4E6       0.032367
     20 H2           1.8900    -0.8840    -0.5110 hc         1 4E6       0.039700
     21 H2A          1.8900     0.8840    -0.5110 hc         1 4E6       0.039700
     22 H3           1.6790     0.8840     1.9540 hc         1 4E6       0.040700
     23 H3A          1.6790    -0.8850     1.9530 hc         1 4E6       0.040700
     24 H4           3.9310    -0.8840     0.9300 hc         1 4E6       0.041200
     25 H4A          3.9300     0.8850     0.9310 hc         1 4E6       0.041200
     26 H5           3.7200     0.8850     3.3950 hc         1 4E6       0.040700
     27 H5A          3.7190    -0.8840     3.3950 hc         1 4E6       0.040700
     28 H6           5.9710     0.8840     2.3720 hc         1 4E6       0.041200
     29 H6A          5.9700    -0.8850     2.3730 hc         1 4E6       0.041200
     30 H7           5.7600    -0.8840     4.8370 hc         1 4E6       0.041200
     31 H7A          5.7600     0.8850     4.8360 hc         1 4E6       0.041200
     32 H8           8.0120    -0.8850     3.8150 hc         1 4E6       0.043700
     33 H8A          8.0130     0.8840     3.8130 hc         1 4E6       0.043700
     34 H9           7.8010     0.8870     6.2780 hc         1 4E6       0.047700
     35 H9A          7.8000    -0.8830     6.2800 hc         1 4E6       0.047700
     36 H10         10.2100    -0.7680     5.2290 ha         1 4E6       0.125000
     37 H11          9.7920     1.7120     6.9650 ha         1 4E6       0.128000
     38 H12         12.3460     0.1730     5.8890 ha         1 4E6       0.124000
     39 H13         11.9280     2.6550     7.6220 ha         1 4E6       0.134000
     40 H14         14.3370     1.7090     8.0910 hc         1 4E6       0.052700
     41 H14A        14.3370     1.1020     6.4290 hc         1 4E6       0.052700
     42 H15         15.0630     2.6060     5.9230 ha         1 4E6       0.085000
     43 H16         16.2390     3.3800     7.4960 ha         1 4E6       0.105500
     44 H16A        15.1480     3.7400     8.3900 ha         1 4E6       0.105500
@<TRIPOS>BOND
     1     1     2 1
     2     2     3 1
     3     3     4 1
     4     4     5 1
     5     5     6 1
     6     6     7 1
     7     7     8 1
     8     8     9 1
     9     9    10 1
    10    10    11 2
    11    11    12 1
    12    12    13 2
    13    13    14 1
    14    14    15 1
    15    15    16 2
    16     1    17 1
    17     1    18 1
    18     1    19 1
    19     2    20 1
    20     2    21 1
    21     3    22 1
    22     3    23 1
    23     4    24 1
    24     4    25 1
    25     5    26 1
    26     5    27 1
    27     6    28 1
    28     6    29 1
    29     7    30 1
    30     7    31 1
    31     8    32 1
    32     8    33 1
    33     9    34 1
    34     9    35 1
    35    10    36 1
    36    11    37 1
    37    12    38 1
    38    13    39 1
    39    14    40 1
    40    14    41 1
    41    15    42 1
    42    16    43 1
    43    16    44 1
@<TRIPOS>SUBSTRUCTURE
     1 4E6         1 TEMP              0 ****  ****    0 ROOT
