@<TRIPOS>MOLECULE
molecule
   37    38     1     0     0
SMALL
bcc


@<TRIPOS>ATOM
      1 N            0.0000     0.0000     0.0000 n7         1 4E7      -0.812200
      2 CA           1.4790     0.0000     0.0000 c3         1 4E7       0.051500
      3 CB           1.9300     0.0000     1.4720 c3         1 4E7      -0.002400
      4 C            1.9920    -1.2320    -0.6990 c          1 4E7       0.871600
      5 OXT          3.2580    -1.2730    -1.1450 o          1 4E7      -0.854800
      6 O            1.2660    -2.1850    -0.8550 o          1 4E7      -0.854800
      7 CAM          4.1300     3.5670     2.3510 ca         1 4E7      -0.111000
      8 CAQ         -0.4060    -0.6110     1.2910 c3         1 4E7       0.144800
      9 CAR          0.6220    -0.0320     2.2960 c3         1 4E7      -0.073700
     10 CAY          2.8520     3.6480     1.8370 ca         1 4E7      -0.180000
     11 CAZ          4.7080     2.3180     2.5840 ca         1 4E7      -0.117600
     12 OAA          6.7700     3.3470     3.4050 o          1 4E7      -0.855300
     13 OAC          6.5780     1.1370     3.3320 o          1 4E7      -0.855300
     14 CG           2.7110     1.2520     1.7800 ca         1 4E7      -0.084300
     15 CD1          2.1440     2.4930     1.5510 ca         1 4E7      -0.145000
     16 CD2          3.9860     1.1570     2.3000 ca         1 4E7      -0.086000
     17 C1           0.7700    -0.9500     3.5110 c3         1 4E7      -0.073400
     18 C2          -0.4930    -0.8650     4.3710 c3         1 4E7      -0.085400
     19 C3          -0.3460    -1.7820     5.5850 c3         1 4E7      -0.092100
     20 H8          -0.3340    -0.5650    -0.7560 hn         1 4E7       0.352800
     21 HA           1.8450     0.8910    -0.4960 h1         1 4E7       0.074700
     22 HB           2.5240    -0.8810     1.6810 hc         1 4E7       0.075700
     23 HAQ1        -0.3240    -1.6910     1.2440 h1         1 4E7       0.024200
     24 HAQ2        -1.4110    -0.3070     1.5570 h1         1 4E7       0.024200
     25 HAR1         0.3370     0.9690     2.5970 hc         1 4E7       0.053700
     26 HD1          1.1410     2.5610     1.1470 ha         1 4E7       0.116000
     27 HD2          4.4280     0.1850     2.4780 ha         1 4E7       0.151000
     28 H2           0.9100    -1.9710     3.1770 hc         1 4E7       0.047700
     29 H1           1.6270    -0.6400     4.0960 hc         1 4E7       0.047700
     30 H3          -1.3500    -1.1750     3.7850 hc         1 4E7       0.033200
     31 H4          -0.6330     0.1560     4.7040 hc         1 4E7       0.033200
     32 H5           0.5120    -1.4720     6.1710 hc         1 4E7       0.022033
     33 H6          -0.2050    -2.8030     5.2520 hc         1 4E7       0.022033
     34 H7          -1.2400    -1.7220     6.1940 hc         1 4E7       0.022033
     35 HAM          4.6830     4.4720     2.5750 ha         1 4E7       0.135000
     36 CAV          6.0770     2.2250     3.1310 c          1 4E7       0.889200
     37 HAY          2.4020     4.6160     1.6550 ha         1 4E7       0.088000
@<TRIPOS>BOND
     1    10    15 ar  
     2    10     7 ar  
     3    15    14 ar  
     4    19    18 1   
     5     7    11 ar  
     6    17    18 1   
     7    17     9 1   
     8    14     3 1   
     9    14    16 ar  
    10    11    16 ar  
    11    11    36 1   
    12     3     9 1   
    13     3     2 1   
    14     9     8 1   
    15     6     4 1   
    16    36    13 1   
    17    36    12 1   
    18     8     1 1   
    19     4     2 1   
    20     4     5 1   
    21     2     1 1   
    22     1    20 1   
    23     2    21 1   
    24     3    22 1   
    25     7    35 1   
    26     8    23 1   
    27     8    24 1   
    28     9    25 1   
    29    10    37 1   
    30    15    26 1   
    31    16    27 1   
    32    17    28 1   
    33    17    29 1   
    34    18    30 1   
    35    18    31 1   
    36    19    32 1   
    37    19    33 1   
    38    19    34 1   
@<TRIPOS>SUBSTRUCTURE
     1 4E7         1 TEMP              0 ****  ****    0 ROOT
