@<TRIPOS>MOLECULE
molecule
   44    46     1     0     0
SMALL
bcc


@<TRIPOS>ATOM
      1 N01          0.0000     0.0000     0.0000 nc         1 4E8      -0.691000
      2 C02          1.3040     0.0000     0.0000 cd         1 4E8       0.431400
      3 N03          1.7370     0.0000     1.2890 na         1 4E8      -0.215700
      4 C04          0.6200     0.0000     2.0880 cd         1 4E8      -0.241600
      5 C05         -0.4460     0.0010     1.2660 cc         1 4E8       0.312200
      6 C1'          9.2010    -3.4170    -5.7500 ca         1 4E8      -0.056300
      7 N11          3.3220    -0.0010     3.0160 nb         1 4E8      -0.757000
      8 C12          3.0640    -0.0010     1.7190 ca         1 4E8       0.793500
      9 N13          4.0340    -0.0020     0.8180 nb         1 4E8      -0.764000
     10 C14          5.3020    -0.0030     1.1910 ca         1 4E8       0.497600
     11 C15          5.6100    -0.0030     2.5440 ca         1 4E8      -0.397600
     12 C16          4.5690    -0.0020     3.4580 ca         1 4E8       0.490200
     13 C17          6.4010    -0.0040     0.1590 c3         1 4E8      -0.131700
     14 C18          6.2050    -1.1860    -0.7930 c3         1 4E8       0.161800
     15 N19          7.2750    -1.1870    -1.7990 n7         1 4E8      -0.824200
     16 C2'         10.3820    -4.0900    -5.5000 ca         1 4E8      -0.165000
     17 C20          7.1200    -2.3100    -2.7330 c3         1 4E8       0.157800
     18 C21          8.2500    -2.2790    -3.7630 c3         1 4E8      -0.079400
     19 C22          8.0870    -3.4490    -4.7340 c3         1 4E8      -0.036100
     20 C3'         11.4060    -4.0600    -6.4330 ca         1 4E8       0.135900
     21 C4'         11.2440    -3.3570    -7.6140 ca         1 4E8      -0.171000
     22 C5'         10.0620    -2.6850    -7.8610 ca         1 4E8      -0.100000
     23 C6'          9.0430    -2.7110    -6.9270 ca         1 4E8      -0.142000
     24 F7'         12.5610    -4.7170    -6.1900 f          1 4E8      -0.141900
     25 H02          1.9360    -0.0000    -0.8800 h5         1 4E8       0.081100
     26 H04          0.6010     0.0010     3.1710 h4         1 4E8       0.191000
     27 H05         -1.4840     0.0010     1.5740 h4         1 4E8       0.045100
     28 H15          6.6400    -0.0040     2.8770 ha         1 4E8       0.155000
     29 H16          4.7730    -0.0020     4.5220 h4         1 4E8       0.038100
     30 H17          7.3600    -0.0930     0.6530 hc         1 4E8       0.069200
     31 H17A         6.3690     0.9220    -0.4030 hc         1 4E8       0.069200
     32 H18          6.2370    -2.1110    -0.2300 h1         1 4E8       0.044700
     33 H18A         5.2450    -1.0960    -1.2870 h1         1 4E8       0.044700
     34 HN19         7.2570    -0.3260    -2.3070 hn         1 4E8       0.353800
     35 H2'         10.5080    -4.6400    -4.5750 ha         1 4E8       0.146000
     36 H20          6.1660    -2.2280    -3.2410 h1         1 4E8       0.034200
     37 H20A         7.1570    -3.2440    -2.1840 h1         1 4E8       0.034200
     38 H21          8.2130    -1.3460    -4.3120 hc         1 4E8       0.053700
     39 H21A         9.2040    -2.3610    -3.2550 hc         1 4E8       0.053700
     40 H22          7.1340    -3.3660    -5.2420 hc         1 4E8       0.051700
     41 H22A         8.1250    -4.3820    -4.1860 hc         1 4E8       0.051700
     42 H4'         12.0430    -3.3350    -8.3450 ha         1 4E8       0.144000
     43 H5'          9.9360    -2.1320    -8.7850 ha         1 4E8       0.136000
     44 H6'          8.1170    -2.1840    -7.1220 ha         1 4E8       0.134000
@<TRIPOS>BOND
     1     1     2 2
     2     1     5 1
     3     2     3 1
     4     3     4 1
     5     3     8 1
     6     4     5 2
     7     6    16 ar
     8     6    19 1
     9     6    23 ar
    10     7     8 ar
    11     7    12 ar
    12     8     9 ar
    13     9    10 ar
    14    10    11 ar
    15    10    13 1
    16    11    12 ar
    17    13    14 1
    18    14    15 1
    19    15    17 1
    20    16    20 ar
    21    17    18 1
    22    18    19 1
    23    20    21 ar
    24    20    24 1
    25    21    22 ar
    26    22    23 ar
    27     2    25 1
    28     4    26 1
    29     5    27 1
    30    11    28 1
    31    12    29 1
    32    13    30 1
    33    13    31 1
    34    14    32 1
    35    14    33 1
    36    15    34 1
    37    16    35 1
    38    17    36 1
    39    17    37 1
    40    18    38 1
    41    18    39 1
    42    19    40 1
    43    19    41 1
    44    21    42 1
    45    22    43 1
    46    23    44 1
@<TRIPOS>SUBSTRUCTURE
     1 4E8         1 TEMP              0 ****  ****    0 ROOT
