@<TRIPOS>MOLECULE
4E8
   44    46     1     0     0
SMALL
bcc


@<TRIPOS>ATOM
      1 N01          0.0000     0.0000     0.0000 nc         1 4E8      -0.613000
      2 C02          1.3040     0.0000     0.0000 cd         1 4E8       0.238400
      3 N03          1.7370     0.0000     1.2890 na         1 4E8       0.288300
      4 C04          0.6200     0.0000     2.0880 cd         1 4E8      -0.414600
      5 C05         -0.4460     0.0010     1.2660 cc         1 4E8       0.327200
      6 C1'          9.2010    -3.4170    -5.7500 ca         1 4E8      -0.063300
      7 N11          3.3220    -0.0010     3.0160 nb         1 4E8      -0.634000
      8 C12          3.0640    -0.0010     1.7190 ca         1 4E8       0.540500
      9 N13          4.0340    -0.0020     0.8180 nb         1 4E8      -0.631000
     10 C14          5.3020    -0.0030     1.1910 ca         1 4E8       0.440600
     11 C15          5.6100    -0.0030     2.5440 ca         1 4E8      -0.352600
     12 C16          4.5690    -0.0020     3.4580 ca         1 4E8       0.470200
     13 C17          6.4010    -0.0040     0.1590 c3         1 4E8      -0.074700
     14 C18          6.2050    -1.1860    -0.7930 c3         1 4E8       0.145800
     15 N19          7.2750    -1.1870    -1.7990 n7         1 4E8      -0.588200
     16 C2'         10.3820    -4.0900    -5.5000 ca         1 4E8      -0.130000
     17 C20          7.1200    -2.3100    -2.7330 c3         1 4E8       0.143800
     18 C21          8.2500    -2.2790    -3.7630 c3         1 4E8      -0.028400
     19 C22          8.0870    -3.4490    -4.7340 c3         1 4E8       0.030900
     20 C3'         11.4060    -4.0600    -6.4330 ca         1 4E8       0.107900
     21 C4'         11.2440    -3.3570    -7.6140 ca         1 4E8      -0.137000
     22 C5'         10.0620    -2.6850    -7.8610 ca         1 4E8      -0.071000
     23 C6'          9.0430    -2.7110    -6.9270 ca         1 4E8      -0.112000
     24 F7'         12.5610    -4.7170    -6.1900 f          1 4E8      -0.128900
     25 H02          1.9360    -0.0000    -0.8800 h5         1 4E8       0.035100
     26 H04          0.6010     0.0010     3.1710 h4         1 4E8       0.166000
     27 H05         -1.4840     0.0010     1.5740 h4         1 4E8       0.004100
     28 H15          6.6400    -0.0040     2.8770 ha         1 4E8       0.134000
     29 H16          4.7730    -0.0020     4.5220 h4         1 4E8      -0.008900
     30 H17          7.3600    -0.0930     0.6530 hc         1 4E8       0.033700
     31 H17A         6.3690     0.9220    -0.4030 hc         1 4E8       0.033700
     32 H18          6.2370    -2.1110    -0.2300 h1         1 4E8       0.016200
     33 H18A         5.2450    -1.0960    -1.2870 h1         1 4E8       0.016200
     34 HN19         7.2570    -0.3260    -2.3070 hn         1 4E8       0.254800
     35 H2'         10.5080    -4.6400    -4.5750 ha         1 4E8       0.122000
     36 H20          6.1660    -2.2280    -3.2410 h1         1 4E8       0.008200
     37 H20A         7.1570    -3.2440    -2.1840 h1         1 4E8       0.008200
     38 H21          8.2130    -1.3460    -4.3120 hc         1 4E8       0.023700
     39 H21A         9.2040    -2.3610    -3.2550 hc         1 4E8       0.023700
     40 H22          7.1340    -3.3660    -5.2420 hc         1 4E8       0.020700
     41 H22A         8.1250    -4.3820    -4.1860 hc         1 4E8       0.020700
     42 H4'         12.0430    -3.3350    -8.3450 ha         1 4E8       0.119000
     43 H5'          9.9360    -2.1320    -8.7850 ha         1 4E8       0.106000
     44 H6'          8.1170    -2.1840    -7.1220 ha         1 4E8       0.109000
@<TRIPOS>BOND
     1     1     2 2   
     2     1     5 1   
     3     2     3 1   
     4     2    25 1   
     5     3     4 1   
     6     3     8 1   
     7     4     5 2   
     8     4    26 1   
     9     5    27 1   
    10     6    16 ar  
    11     6    19 1   
    12     6    23 ar  
    13     7     8 ar  
    14     7    12 ar  
    15     8     9 ar  
    16     9    10 ar  
    17    10    11 ar  
    18    10    13 1   
    19    11    12 ar  
    20    11    28 1   
    21    12    29 1   
    22    13    14 1   
    23    13    30 1   
    24    13    31 1   
    25    14    15 1   
    26    14    32 1   
    27    14    33 1   
    28    15    17 1   
    29    15    34 1   
    30    16    20 ar  
    31    16    35 1   
    32    17    18 1   
    33    17    36 1   
    34    17    37 1   
    35    18    19 1   
    36    18    38 1   
    37    18    39 1   
    38    19    40 1   
    39    19    41 1   
    40    20    21 ar  
    41    20    24 1   
    42    21    22 ar  
    43    21    42 1   
    44    22    23 ar  
    45    22    43 1   
    46    23    44 1   
@<TRIPOS>SUBSTRUCTURE
     1 4E8         1 TEMP              0 ****  ****    0 ROOT
