@<TRIPOS>MOLECULE
4EA
   51    56     1     0     0
SMALL
bcc


@<TRIPOS>ATOM
      1 C1           0.0000     0.0000     0.0000 c2         1 4EA      -0.019000
      2 C2           1.3430     0.0000     0.0000 c2         1 4EA      -0.030000
      3 C3           2.0800     0.0000     1.2760 c3         1 4EA       0.033000
      4 C4           3.4810     0.0000     1.2990 c2         1 4EA      -0.214500
      5 C7           1.3990     0.0040     2.5010 c2         1 4EA      -0.214500
      6 C8           2.1290    -0.0020     3.6710 c2         1 4EA      -0.017500
      7 N1           3.4490    -0.0010     3.6460 n2         1 4EA      -0.071000
      8 C9           4.1290     0.0010     2.5160 c2         1 4EA      -0.017500
      9 C10        -11.1100     2.4290    -5.9200 ca         1 4EA      -0.073000
     10 C11        -11.2420     1.0590    -5.9720 ca         1 4EA      -0.064000
     11 C12        -10.1110     0.2530    -5.9000 ca         1 4EA      -0.176000
     12 C13         -8.8450     0.8510    -5.7680 ca         1 4EA      -0.107000
     13 C14         -8.7330     2.2420    -5.7240 ca         1 4EA      -0.117000
     14 C15         -9.8580     3.0150    -5.7950 ca         1 4EA      -0.079000
     15 N2          -9.9160    -1.1100    -5.9230 na         1 4EA       0.372000
     16 C16         -8.5820    -1.3900    -5.8170 c2         1 4EA      -0.172000
     17 C17         -7.8800    -0.2490    -5.7240 c2         1 4EA      -0.280000
     18 C18         -2.0240     0.0010    -3.6820 c2         1 4EA      -0.237000
     19 N3          -0.7060     0.0020    -3.6350 n2         1 4EA       0.051000
     20 C19         -0.0490     0.0020    -2.4930 c2         1 4EA      -0.159000
     21 C20         -0.7370     0.0010    -1.2770 c3         1 4EA       0.068000
     22 C21         -2.1370     0.0060    -1.2900 c2         1 4EA      -0.194000
     23 C22         -2.7830     0.0010    -2.5190 c2         1 4EA       0.055000
     24 O1          -4.1400     0.0000    -2.5830 os         1 4EA      -0.191000
     25 C24         -4.4880     0.0010    -3.9690 c3         1 4EA       0.010000
     26 C23         -6.0110     0.0000    -4.1130 c3         1 4EA      -0.279000
     27 C25         -6.3840    -0.1250    -5.5910 c3         1 4EA       0.001000
     28 N4          -6.5540     1.2540    -3.5760 nz         1 4EA       0.827000
     29 H1          -0.1470    -0.8750    -0.6220 DU         1 4EA       0.043000
     30 H2           1.4900    -0.8750     0.6220 DU         1 4EA       0.097000
     31 H4           4.0460     0.0020     0.3750 ha         1 4EA       0.127000
     32 H7           0.3160     0.0040     2.5280 ha         1 4EA       0.127000
     33 H8           1.6120    -0.0010     4.6230 h4         1 4EA       0.123500
     34 H9           5.2120     0.0010     2.5440 h4         1 4EA       0.123500
     35 H14         -7.7600     2.7070    -5.6260 ha         1 4EA       0.079000
     36 H15         -9.7710     4.0950    -5.7560 ha         1 4EA       0.115000
     37 HN2        -10.6430    -1.7930    -6.0050 hn         1 4EA       0.083000
     38 H16         -8.1540    -2.3860    -5.8100 h4         1 4EA       0.151000
     39 H18         -2.5220    -0.0010    -4.6440 h4         1 4EA       0.132000
     40 H19          1.0340     0.0030    -2.4980 h4         1 4EA       0.146000
     41 H21         -2.7020     0.0060    -0.3660 ha         1 4EA       0.137000
     42 H241        -4.0810     0.8860    -4.4430 h1         1 4EA       0.088500
     43 H242        -4.0790    -0.8830    -4.4440 h1         1 4EA       0.088500
     44 H23         -6.4250    -0.8370    -3.5640 hx         1 4EA       0.138000
     45 H251        -6.0460     0.7550    -6.1250 hc         1 4EA       0.087000
     46 H252        -5.9100    -1.0050    -6.0100 hc         1 4EA       0.087000
     47 HN41        -6.1410     1.4420    -2.6840 hn         1 4EA       0.028667
     48 HN42        -6.3460     2.0050    -4.2040 hn         1 4EA       0.028667
     49 H10        -11.9920     3.0560    -5.9760 ha         1 4EA       0.121000
     50 H43         -7.5460     1.1710    -3.4710 hn         1 4EA       0.028667
     51 H11        -12.2240     0.6120    -6.0690 ha         1 4EA       0.116000
@<TRIPOS>BOND
     1     1     2 1   
     2     1    21 1   
     3     1    29 1   
     4     2     3 1   
     5     2    30 1   
     6     3     4 1   
     7     3     5 1   
     8     3    30 1   
     9     4     8 1   
    10     4    31 1   
    11     5     6 1   
    12     5    32 1   
    13     6     7 1   
    14     6    33 1   
    15     7     8 1   
    16     8    34 1   
    17     9    10 1   
    18     9    14 1   
    19     9    49 1   
    20    10    11 1   
    21    10    51 1   
    22    11    12 1   
    23    11    15 1   
    24    12    13 1   
    25    12    17 1   
    26    13    14 1   
    27    13    35 1   
    28    14    36 1   
    29    15    16 1   
    30    15    37 1   
    31    16    17 1   
    32    16    38 1   
    33    17    27 1   
    34    18    19 1   
    35    18    23 1   
    36    18    39 1   
    37    19    20 1   
    38    20    21 1   
    39    20    40 1   
    40    21    22 1   
    41    21    29 1   
    42    22    23 1   
    43    22    41 1   
    44    23    24 1   
    45    24    25 1   
    46    25    26 1   
    47    25    42 1   
    48    25    43 1   
    49    26    27 1   
    50    26    28 1   
    51    26    44 1   
    52    27    45 1   
    53    27    46 1   
    54    28    47 1   
    55    28    48 1   
    56    28    50 1   
@<TRIPOS>SUBSTRUCTURE
     1 4EA         1 TEMP              0 ****  ****    0 ROOT
