@<TRIPOS>MOLECULE
molecule
   51    54     1     0     0
SMALL
bcc


@<TRIPOS>ATOM
      1 C1           0.0000     0.0000     0.0000 ce         1 4EA      -0.136200
      2 C2           1.3430     0.0000     0.0000 cf         1 4EA      -0.064200
      3 C3           2.0800     0.0000     1.2760 ca         1 4EA      -0.043800
      4 C4           3.4810     0.0000     1.2990 ca         1 4EA      -0.239800
      5 C7           1.3990     0.0040     2.5010 ca         1 4EA      -0.239800
      6 C8           2.1290    -0.0020     3.6710 ca         1 4EA       0.427200
      7 N1           3.4490    -0.0010     3.6460 nb         1 4EA      -0.676000
      8 C9           4.1290     0.0010     2.5160 ca         1 4EA       0.427200
      9 C10        -11.1100     2.4290    -5.9200 ca         1 4EA      -0.097000
     10 C11        -11.2420     1.0590    -5.9720 ca         1 4EA      -0.113000
     11 C12        -10.1110     0.2530    -5.9000 ca         1 4EA      -0.029200
     12 C13         -8.8450     0.8510    -5.7680 ca         1 4EA      -0.128800
     13 C14         -8.7330     2.2420    -5.7240 ca         1 4EA      -0.139000
     14 C15         -9.8580     3.0150    -5.7950 ca         1 4EA      -0.117000
     15 N2          -9.9160    -1.1100    -5.9230 na         1 4EA      -0.159400
     16 C16         -8.5820    -1.3900    -5.8170 cc         1 4EA      -0.036100
     17 C17         -7.8800    -0.2490    -5.7240 cd         1 4EA      -0.254400
     18 C18         -2.0240     0.0010    -3.6820 ca         1 4EA       0.331200
     19 N3          -0.7060     0.0020    -3.6350 nb         1 4EA      -0.638000
     20 C19         -0.0490     0.0020    -2.4930 ca         1 4EA       0.409200
     21 C20         -0.7370     0.0010    -1.2770 ca         1 4EA      -0.123100
     22 C21         -2.1370     0.0060    -1.2900 ca         1 4EA      -0.105000
     23 C22         -2.7830     0.0010    -2.5190 ca         1 4EA      -0.035200
     24 O1          -4.1400     0.0000    -2.5830 os         1 4EA      -0.326900
     25 C24         -4.4880     0.0010    -3.9690 c3         1 4EA       0.089400
     26 C23         -6.0110     0.0000    -4.1130 c3         1 4EA       0.106500
     27 C25         -6.3840    -0.1250    -5.5910 c3         1 4EA      -0.011200
     28 N4          -6.5540     1.2540    -3.5760 nz         1 4EA      -0.804600
     29 H1          -0.5420     0.0000     0.9380 ha         1 4EA       0.145000
     30 H2           1.8850     0.0010    -0.9380 ha         1 4EA       0.138000
     31 H4           4.0470     0.0020     0.3750 ha         1 4EA       0.139000
     32 H7           0.3160     0.0040     2.5280 ha         1 4EA       0.139000
     33 H8           1.6120    -0.0010     4.6230 h4         1 4EA       0.031100
     34 H9           5.2120     0.0010     2.5440 h4         1 4EA       0.031100
     35 H14         -7.7600     2.7070    -5.6260 ha         1 4EA       0.100000
     36 H15         -9.7710     4.0950    -5.7560 ha         1 4EA       0.146000
     37 HN2        -10.6430    -1.7930    -6.0050 hn         1 4EA       0.319700
     38 H16         -8.1540    -2.3860    -5.8100 h4         1 4EA       0.181000
     39 H18         -2.5220    -0.0010    -4.6440 h4         1 4EA       0.019100
     40 H19          1.0340     0.0030    -2.4980 h4         1 4EA       0.044100
     41 H21         -2.7020     0.0060    -0.3660 ha         1 4EA       0.157000
     42 H241        -4.0790    -0.8830    -4.4440 h1         1 4EA       0.080700
     43 H242        -4.0810     0.8860    -4.4430 h1         1 4EA       0.080700
     44 H23         -6.4250    -0.8370    -3.5640 hx         1 4EA       0.124700
     45 H251        -6.0460     0.7550    -6.1250 hc         1 4EA       0.084700
     46 H252        -5.9100    -1.0050    -6.0100 hc         1 4EA       0.084700
     47 HN41        -7.5460     1.1710    -3.4730 hn         1 4EA       0.458800
     48 HN42        -6.3460     2.0050    -4.2040 hn         1 4EA       0.458800
     49 H10        -11.9920     3.0560    -5.9760 ha         1 4EA       0.155000
     50 H43         -6.1400     1.4430    -2.6840 hn         1 4EA       0.458800
     51 H11        -12.2240     0.6120    -6.0690 ha         1 4EA       0.149000
@<TRIPOS>BOND
     1     1     2 2
     2     1    21 1
     3     1    29 1
     4     2     3 1
     5     2    30 1
     6     3     4 ar
     7     3     5 ar
     8     4     8 ar
     9     4    31 1
    10     5     6 ar
    11     5    32 1
    12     6     7 ar
    13     6    33 1
    14     7     8 ar
    15     8    34 1
    16     9    10 ar
    17     9    14 ar
    18     9    49 1
    19    10    11 ar
    20    10    51 1
    21    11    12 ar
    22    11    15 1
    23    12    13 ar
    24    12    17 1
    25    13    14 ar
    26    13    35 1
    27    14    36 1
    28    15    16 1
    29    15    37 1
    30    16    17 2
    31    16    38 1
    32    17    27 1
    33    18    19 ar
    34    18    23 ar
    35    18    39 1
    36    19    20 ar
    37    20    21 ar
    38    20    40 1
    39    21    22 ar
    40    22    23 ar
    41    22    41 1
    42    23    24 1
    43    24    25 1
    44    25    26 1
    45    25    42 1
    46    25    43 1
    47    26    27 1
    48    26    28 1
    49    26    44 1
    50    27    45 1
    51    27    46 1
    52    28    47 1
    53    28    48 1
    54    50    28 1
@<TRIPOS>SUBSTRUCTURE
     1 4EA         1 TEMP              0 ****  ****    0 ROOT
