@<TRIPOS>MOLECULE
molecule
   66    69     1     0     0
SMALL
bcc


@<TRIPOS>ATOM
      1 C1           0.0000     0.0000     0.0000 c3         1 4EB      -0.048800
      2 C2           1.5060     0.0000     0.0000 ca         1 4EB      -0.080300
      3 C3           2.1960     0.0000     1.2000 ca         1 4EB      -0.115000
      4 C4           3.5770     0.0000     1.2040 ca         1 4EB      -0.140000
      5 C5           4.2740     0.0010     0.0010 ca         1 4EB       0.026900
      6 S6           6.0360     0.0000     0.0020 ss         1 4EB      -0.235000
      7 C7           6.3500    -0.0000     1.7880 c3         1 4EB      -0.034300
      8 C8           7.8600    -0.0010     2.0420 c3         1 4EB       0.241800
      9 N9           8.1130    -0.0020     3.4840 nu         1 4EB      -0.795600
     10 C10          9.4250    -0.0020     3.9620 ca         1 4EB       0.298600
     11 C11         10.4900    -0.1250     3.0770 ca         1 4EB      -0.241000
     12 C12         11.7860    -0.1250     3.5530 ca         1 4EB       0.045000
     13 C13         12.0260    -0.0030     4.9090 ca         1 4EB      -0.382500
     14 C14         10.9690     0.1200     5.7930 ca         1 4EB       0.097000
     15 C15          9.6700     0.1250     5.3230 ca         1 4EB      -0.259200
     16 N16          8.5400     0.2570     6.2700 no         1 4EB       0.301200
     17 O17          7.5600     0.9100     5.9610 o          1 4EB      -0.207500
     18 O18          8.5910    -0.2890     7.3570 o          1 4EB      -0.207500
     19 S19         13.6810    -0.0040     5.5120 sy         1 4EB       1.424900
     20 O20         14.4550    -0.6570     4.5150 o          1 4EB      -0.612800
     21 O21         13.5950    -0.3980     6.8750 o          1 4EB      -0.612800
     22 N22         14.2030     1.5670     5.5310 ns         1 4EB      -0.655300
     23 C23         13.6170     2.4620     6.3520 c          1 4EB       0.701700
     24 O24         12.7060     2.1150     7.0790 o          1 4EB      -0.571100
     25 C25         14.0820     3.8640     6.3690 ca         1 4EB      -0.162600
     26 C26         13.4760     4.7910     7.2190 ca         1 4EB      -0.075500
     27 C27         13.9100     6.0970     7.2330 ca         1 4EB      -0.129500
     28 C28         14.9550     6.4950     6.3980 cp         1 4EB      -0.001000
     29 C29         15.5610     5.5690     5.5490 ca         1 4EB      -0.129500
     30 C30         15.1330     4.2620     5.5370 ca         1 4EB      -0.075500
     31 C31         15.4210     7.9030     6.4140 cp         1 4EB      -0.068000
     32 C32         16.7820     8.1890     6.3280 ca         1 4EB      -0.086500
     33 C33         17.2120     9.5000     6.3430 ca         1 4EB      -0.167000
     34 C34         16.2910    10.5310     6.4440 ca         1 4EB       0.141900
     35 F35         16.7160    11.8130     6.4590 f          1 4EB      -0.137900
     36 C36         14.9370    10.2510     6.5300 ca         1 4EB      -0.167000
     37 C37         14.4980     8.9440     6.5100 ca         1 4EB      -0.086500
     38 C38          3.5780     0.0010    -1.2010 ca         1 4EB      -0.059300
     39 C39          4.3290     0.0010    -2.5080 c3         1 4EB      -0.052800
     40 C40          2.1970    -0.0060    -1.1980 ca         1 4EB      -0.115000
     41 H4          -0.3610    -0.2470     0.9910 hc         1 4EB       0.044700
     42 H5          -0.3610    -0.7350    -0.7090 hc         1 4EB       0.044700
     43 H6          -0.3610     0.9820    -0.2820 hc         1 4EB       0.044700
     44 H1           1.6530    -0.0010     2.1370 ha         1 4EB       0.135000
     45 H2           4.1160     0.0000     2.1440 ha         1 4EB       0.132000
     46 H10          5.9090    -0.8850     2.2320 h1         1 4EB       0.076700
     47 H11          5.9100     0.8840     2.2330 h1         1 4EB       0.076700
     48 H12          8.3010     0.8830     1.5980 h1         1 4EB       0.057200
     49 H13          8.3000    -0.8860     1.5970 h1         1 4EB       0.057200
     50 H14          7.3460    -0.0370     4.1270 hn         1 4EB       0.470800
     51 H16         10.3030    -0.2200     2.0140 ha         1 4EB       0.153000
     52 H15         12.6160    -0.2210     2.8630 ha         1 4EB       0.157000
     53 H17         11.1610     0.2170     6.8550 ha         1 4EB       0.196000
     54 H18         14.9660     1.8480     4.9480 hn         1 4EB       0.348500
     55 H22         12.6650     4.4830     7.8680 ha         1 4EB       0.144000
     56 H21         13.4410     6.8170     7.8930 ha         1 4EB       0.143000
     57 H20         16.3740     5.8780     4.9020 ha         1 4EB       0.143000
     58 H19         15.6030     3.5430     4.8770 ha         1 4EB       0.144000
     59 H26         17.5020     7.3830     6.2490 ha         1 4EB       0.142000
     60 H25         18.2700     9.7240     6.2760 ha         1 4EB       0.149000
     61 H24         14.2220    11.0610     6.6070 ha         1 4EB       0.149000
     62 H23         13.4390     8.7260     6.5770 ha         1 4EB       0.142000
     63 H7           4.9510    -0.8840    -2.5670 hc         1 4EB       0.050367
     64 H8           4.9520     0.8850    -2.5660 hc         1 4EB       0.050367
     65 H9           3.6230     0.0020    -3.3300 hc         1 4EB       0.050367
     66 H3           1.6540    -0.0060    -2.1350 ha         1 4EB       0.136000
@<TRIPOS>BOND
     1     1     2 1   
     2     1    41 1   
     3     1    42 1   
     4     1    43 1   
     5     2     3 ar  
     6     2    40 ar  
     7     3     4 ar  
     8     3    44 1   
     9     4     5 ar  
    10     4    45 1   
    11     5     6 1   
    12     5    38 ar  
    13     6     7 1   
    14     7     8 1   
    15     7    46 1   
    16     7    47 1   
    17     8     9 1   
    18     8    48 1   
    19     8    49 1   
    20     9    10 1   
    21     9    50 1   
    22    10    11 ar  
    23    10    15 ar  
    24    11    12 ar  
    25    11    51 1   
    26    12    13 ar  
    27    12    52 1   
    28    13    14 ar  
    29    13    19 1   
    30    14    15 ar  
    31    14    53 1   
    32    15    16 1   
    33    16    17 1   
    34    16    18 1   
    35    19    20 2   
    36    19    21 2   
    37    19    22 1   
    38    22    23 1   
    39    22    54 1   
    40    23    24 2   
    41    23    25 1   
    42    25    26 ar  
    43    25    30 ar  
    44    26    27 ar  
    45    26    55 1   
    46    27    28 ar  
    47    27    56 1   
    48    28    29 ar  
    49    28    31 1   
    50    29    30 ar  
    51    29    57 1   
    52    30    58 1   
    53    31    32 ar  
    54    31    37 ar  
    55    32    33 ar  
    56    32    59 1   
    57    33    34 ar  
    58    33    60 1   
    59    34    35 1   
    60    34    36 ar  
    61    36    37 ar  
    62    36    61 1   
    63    37    62 1   
    64    38    39 1   
    65    38    40 ar  
    66    39    63 1   
    67    39    64 1   
    68    39    65 1   
    69    40    66 1   
@<TRIPOS>SUBSTRUCTURE
     1 4EB         1 TEMP              0 ****  ****    0 ROOT
