@<TRIPOS>MOLECULE
molecule
   33    35     1     0     0
SMALL
bcc


@<TRIPOS>ATOM
      1 C10          0.0000     0.0000     0.0000 ca         1 4ED      -0.078000
      2 C17          5.5060    -0.0140    -6.1920 ca         1 4ED      -0.089000
      3 C02          7.8030    -0.0040    -5.5140 ca         1 4ED      -0.081300
      4 C03          7.4380    -0.0030    -4.2020 ca         1 4ED      -0.070000
      5 C04          6.0730    -0.0020    -3.8360 ca         1 4ED       0.120400
      6 N05          5.5350    -0.0020    -2.6120 nc         1 4ED      -0.568100
      7 C06          4.2440    -0.0010    -2.5160 cd         1 4ED       0.464500
      8 C07          3.4980    -0.0010    -1.2530 cf         1 4ED      -0.180600
      9 C08          2.1520    -0.0000    -1.2670 ce         1 4ED      -0.088200
     10 C09          1.4020     0.0000     0.0000 ca         1 4ED      -0.189100
     11 C11         -0.6550     0.0010     1.2180 ca         1 4ED      -0.254300
     12 C12          0.0850    -0.0040     2.3870 ca         1 4ED       0.425200
     13 N13          1.4040    -0.0090     2.3570 nb         1 4ED      -0.687000
     14 C14          2.0760     0.0000     1.2250 ca         1 4ED       0.432200
     15 S15          3.5140    -0.0250    -4.1150 ss         1 4ED      -0.144100
     16 C16          5.1120    -0.0140    -4.8570 ca         1 4ED      -0.044100
     17 C18          6.8450    -0.0090    -6.5170 ca         1 4ED      -0.068300
     18 C19          7.2690    -0.0110    -7.9630 c3         1 4ED      -0.045800
     19 H1          -0.5560     0.0040    -0.9300 ha         1 4ED       0.141000
     20 H2           4.7590    -0.0180    -6.9770 ha         1 4ED       0.138000
     21 H3           9.4860     0.8860    -6.4650 hc         1 4ED       0.045700
     22 H4           9.4950    -0.8830    -6.4610 hc         1 4ED       0.045700
     23 H5           9.8630     0.0060    -4.9770 hc         1 4ED       0.045700
     24 H6           8.2000    -0.0020    -3.4320 ha         1 4ED       0.147000
     25 H7           4.0300    -0.0020    -0.3100 ha         1 4ED       0.159000
     26 H8           1.6200     0.0010    -2.2100 ha         1 4ED       0.138000
     27 H9          -1.7380     0.0030     1.2560 ha         1 4ED       0.140000
     28 H10         -0.4260    -0.0070     3.3410 h4         1 4ED       0.025100
     29 H11          3.1590    -0.0020     1.2420 h4         1 4ED       0.030100
     30 H12          6.3900    -0.0160    -8.5970 hc         1 4ED       0.046367
     31 H13          7.8640    -0.8930    -8.1640 hc         1 4ED       0.046367
     32 H14          7.8570     0.8760    -8.1680 hc         1 4ED       0.046367
     33 C01          9.2640     0.0020    -5.8800 c3         1 4ED      -0.045800
@<TRIPOS>BOND
     1    33     3 1   
     2    18    17 1   
     3     3    17 ar  
     4     3     4 ar  
     5    17     2 ar  
     6     4     5 ar  
     7     2    16 ar  
     8     5    16 ar  
     9     5     6 1   
    10    16    15 1   
    11     6     7 2   
    12    15     7 1   
    13     7     8 1   
    14     8     9 2   
    15     9    10 1   
    16    14    10 ar  
    17    14    13 ar  
    18    10     1 ar  
    19    13    12 ar  
    20     1    11 ar  
    21    12    11 ar  
    22     1    19 1   
    23     2    20 1   
    24    33    21 1   
    25    33    22 1   
    26    33    23 1   
    27     4    24 1   
    28     8    25 1   
    29     9    26 1   
    30    11    27 1   
    31    12    28 1   
    32    14    29 1   
    33    18    30 1   
    34    18    31 1   
    35    18    32 1   
@<TRIPOS>SUBSTRUCTURE
     1 4ED         1 TEMP              0 ****  ****    0 ROOT
