@<TRIPOS>MOLECULE
4ED
   33    35     1     0     0
SMALL
bcc


@<TRIPOS>ATOM
      1 C10         0.5440    0.3230   -0.5080 c3        1 4ED     -0.020000
      2 C17         5.2960    0.5920   -5.9000 cx        1 4ED     -0.087000
      3 C02         7.7990   -0.0070   -5.8300 c2        1 4ED     -0.081000
      4 C03         7.6740   -0.4210   -4.5490 c2        1 4ED     -0.089000
      5 C04         6.3990   -0.3400   -3.8690 c2        1 4ED     -0.063000
      6 N05         6.2040   -0.7020   -2.5380 n2        1 4ED     -0.089000
      7 C06         4.9360   -0.4410   -2.2190 c2        1 4ED     -0.309000
      8 C07         4.2540   -0.6550   -0.9170 c3        1 4ED     -0.155000
      9 C08         2.8830   -0.1790   -1.1110 c1        1 4ED     -0.029000
     10 C09         1.9010   -0.1610   -0.0860 c2        1 4ED     -0.429000
     11 C11        -0.4600    0.3610    0.5800 c2        1 4ED     -0.228000
     12 C12        -0.2780   -0.1440    1.7820 c1        1 4ED     -0.049000
     13 N13        -0.2090   -0.7590    2.8530 n2        1 4ED     -0.146000
     14 C14         2.1770   -0.5340    1.1650 c1        1 4ED      0.300000
     15 S15         3.9570    0.2230   -3.4610 ss        1 4ED      0.633000
     16 C16         5.2520    0.1760   -4.5110 c2        1 4ED     -0.412000
     17 C18         6.6510    0.4930   -6.6000 cx        1 4ED     -0.122000
     18 C19         5.5310   -0.4410   -6.9730 cx        1 4ED     -0.190000
     19 H1          0.1700   -0.3460   -1.3330 hc        1 4ED      0.116500
     20 H2          4.6390    1.4510   -6.1440 hc        1 4ED      0.125000
     21 H3          9.0400   -0.6140   -7.4660 hc        1 4ED      0.082667
     22 H4          9.9150   -0.4260   -5.8870 hc        1 4ED      0.082667
     23 H5          9.3850    1.0410   -6.8140 hc        1 4ED      0.082667
     24 H6          8.5350   -0.8000   -3.9760 ha        1 4ED      0.145000
     25 H7          4.7940   -0.1020   -0.0960 hc        1 4ED      0.138000
     26 H8          4.2800   -1.7480   -0.6390 hc        1 4ED      0.138000
     27 H9          0.6590    1.3550   -0.9420 hc        1 4ED      0.116500
     28 H10        -1.4230    0.8340    0.3290 ha        1 4ED      0.166000
     29 H11         0.1500   -0.2940    3.6620 hn        1 4ED      0.191000
     30 H12         6.9230    1.2870   -7.3250 hc        1 4ED      0.123000
     31 H13         5.0350   -0.3010   -7.9490 hc        1 4ED      0.117000
     32 H14         5.6020   -1.5050   -6.6850 hc        1 4ED      0.117000
     33 C01         9.1040   -0.0040   -6.5310 c3        1 4ED     -0.176000
@<TRIPOS>BOND
     1    1   10 1   
     2    1   11 1   
     3    1   19 1   
     4    1   27 1   
     5    2   16 1   
     6    2   17 1   
     7    2   18 1   
     8    2   20 1   
     9    3    4 1   
    10    3   17 1   
    11    3   33 1   
    12    4    5 1   
    13    4   24 1   
    14    5    6 1   
    15    5   16 1   
    16    6    7 1   
    17    7    8 1   
    18    7   15 1   
    19    8    9 1   
    20    8   25 1   
    21    8   26 1   
    22    9   10 1   
    23   10   14 1   
    24   11   12 1   
    25   11   28 1   
    26   12   13 1   
    27   13   29 1   
    28   15   16 1   
    29   17   18 1   
    30   17   30 1   
    31   18   31 1   
    32   18   32 1   
    33   21   33 1   
    34   22   33 1   
    35   23   33 1   
@<TRIPOS>SUBSTRUCTURE
     1 4ED         1 TEMP              0 ****  ****    0 ROOT
