@<TRIPOS>MOLECULE
4EE
   44    47     1     0     0
SMALL
bcc


@<TRIPOS>ATOM
      1 C10          0.0000     0.0000     0.0000 ce         1 4EE       0.490900
      2 N12          2.0360     0.0000     1.1740 na         1 4EE       0.332400
      3 C13          3.3340     0.3450     1.4180 cc         1 4EE       0.332000
      4 C20          3.9450     0.9960    -0.9070 ca         1 4EE      -0.065000
      5 C21          4.8630     1.4590    -1.8250 ca         1 4EE      -0.153000
      6 C22          6.1520     1.7700    -1.4270 ca         1 4EE      -0.040000
      7 C24          5.6190     1.1550     0.8290 ca         1 4EE       0.194100
      8 C26          7.3360     1.3490     2.4610 c3         1 4EE       0.235700
      9 C01         -2.5860    -0.2530    -7.4000 c3         1 4EE       0.001900
     10 C02         -1.7160    -0.2100    -6.1420 c3         1 4EE       0.201400
     11 C04         -1.9350    -0.1290    -3.7760 ca         1 4EE       0.187100
     12 C05         -2.6910    -0.0880    -2.6110 ca         1 4EE      -0.186000
     13 C06         -2.0670    -0.0470    -1.3840 ca         1 4EE      -0.017500
     14 C07         -0.6720    -0.0450    -1.3110 ca         1 4EE      -0.221900
     15 C08          0.0850    -0.0850    -2.4850 ca         1 4EE      -0.017500
     16 C09         -0.5470    -0.1320    -3.7080 ca         1 4EE      -0.186000
     17 N11          1.2870     0.0000     0.0000 n2         1 4EE      -0.609100
     18 N14          3.5460     0.1510     2.7050 nd         1 4EE      -0.329000
     19 N15          2.4710    -0.2850     3.2720 nd         1 4EE      -0.247000
     20 C16          1.5230    -0.3920     2.3920 cc         1 4EE       0.254800
     21 S17         -0.1530    -0.9120     2.5730 ss         1 4EE      -0.326400
     22 C18         -0.8760     0.0480     1.2150 c3         1 4EE      -0.012600
     23 C19          4.3140     0.8400     0.4290 ca         1 4EE      -0.167500
     24 C23          6.5290     1.6200    -0.1060 ca         1 4EE      -0.223000
     25 H2           2.9370     0.7530    -1.2240 ha         1 4EE       0.129000
     26 H3           4.5760     1.5790    -2.8630 ha         1 4EE       0.105000
     27 H4           6.8680     2.1340    -2.1540 ha         1 4EE       0.099000
     28 H5           7.4990     1.1860     3.5190 h1         1 4EE      -0.001633
     29 H6           8.0180     0.7300     1.8910 h1         1 4EE      -0.001633
     30 H7           7.5120     2.3920     2.2250 h1         1 4EE      -0.001633
     31 H8          -3.2110     0.6310    -7.4370 hc         1 4EE       0.013033
     32 H9          -1.9510    -0.2830    -8.2770 hc         1 4EE       0.013033
     33 H10         -3.2120    -1.1370    -7.3760 hc         1 4EE       0.013033
     34 H11         -1.0900     0.6740    -6.1660 h1         1 4EE       0.002200
     35 H12         -1.0910    -1.0940    -6.1050 h1         1 4EE       0.002200
     36 H13         -3.7730    -0.0900    -2.6680 ha         1 4EE       0.125000
     37 H14         -2.6570    -0.0150    -0.4760 ha         1 4EE       0.117500
     38 H15          1.1670    -0.0870    -2.4340 ha         1 4EE       0.117500
     39 H16          0.0380    -0.1630    -4.6190 ha         1 4EE       0.125000
     40 H18         -0.9430     1.0800     1.5360 h1         1 4EE       0.078700
     41 H19         -1.8260    -0.4050     0.9570 h1         1 4EE       0.078700
     42 H20          7.5390     1.8660     0.1990 ha         1 4EE       0.124000
     43 O25          5.9880     1.0080     2.1280 os         1 4EE      -0.262900
     44 O03         -2.5530    -0.1690    -4.9850 os         1 4EE      -0.302900
@<TRIPOS>BOND
     1     1    14 1   
     2     1    17 2   
     3     1    22 1   
     4     2     3 1   
     5     2    17 1   
     6     2    20 1   
     7     3    18 2   
     8     3    23 1   
     9     4     5 ar  
    10     4    23 ar  
    11     4    25 1   
    12     5     6 ar  
    13     5    26 1   
    14     6    24 ar  
    15     6    27 1   
    16     7    23 ar  
    17     7    24 ar  
    18     7    43 1   
    19     8    28 1   
    20     8    29 1   
    21     8    30 1   
    22     8    43 1   
    23     9    10 1   
    24     9    31 1   
    25     9    32 1   
    26     9    33 1   
    27    10    34 1   
    28    10    35 1   
    29    10    44 1   
    30    11    12 ar  
    31    11    16 ar  
    32    11    44 1   
    33    12    13 ar  
    34    12    36 1   
    35    13    14 ar  
    36    13    37 1   
    37    14    15 ar  
    38    15    16 ar  
    39    15    38 1   
    40    16    39 1   
    41    18    19 1   
    42    19    20 2   
    43    20    21 1   
    44    21    22 1   
    45    22    40 1   
    46    22    41 1   
    47    24    42 1   
@<TRIPOS>SUBSTRUCTURE
     1 4EE         1 TEMP              0 ****  ****    0 ROOT
