@<TRIPOS>MOLECULE
molecule
   47    50     1     0     0
SMALL
bcc


@<TRIPOS>ATOM
      1 C1           0.0000     0.0000     0.0000 ca         1 4EF      -0.395400
      2 C2           1.4070     0.0000     0.0000 ca         1 4EF       0.530800
      3 C3           0.7180     0.0010     2.1370 cc         1 4EF      -0.093100
      4 C4          -0.4080     0.0050     1.4040 cd         1 4EF      -0.015800
      5 C5          -4.0020     0.4070    -4.9520 ca         1 4EF      -0.053000
      6 C9          -4.0450    -0.2440    -2.6440 ca         1 4EF       0.085600
      7 C10         -4.6860    -0.1090    -3.8660 ca         1 4EF      -0.165000
      8 C8          -2.7100     0.1410    -2.5150 ca         1 4EF       0.157600
      9 C7          -2.0290     0.6470    -3.6120 ca         1 4EF      -0.046000
     10 C6          -2.6790     0.7830    -4.8250 ca         1 4EF      -0.297500
     11 O2          -2.8030     1.9670    -7.0880 o          1 4EF      -0.637800
     12 O1          -0.7460     2.2170    -5.6910 o          1 4EF      -0.637800
     13 N1           1.8110     0.0000     1.3070 na         1 4EF      -0.265100
     14 C12         -0.6740     0.0010    -1.2310 ca         1 4EF       0.770200
     15 C13          1.3710    -0.0090    -2.3010 ca         1 4EF       0.748900
     16 C14         -5.2110    -2.1290    -1.8180 c3         1 4EF       0.128300
     17 C15         -5.8510     0.1100    -1.1590 c3         1 4EF       0.128300
     18 O3          -6.9690    -1.8010    -0.1940 os         1 4EF      -0.422600
     19 N2          -2.0570     0.0080    -1.2840 nu         1 4EF      -0.735300
     20 C16         -5.9060    -2.6810    -0.5700 c3         1 4EF       0.137900
     21 C17         -6.5400    -0.4660     0.0820 c3         1 4EF       0.137900
     22 N3          -1.1210     0.1630    -7.0080 n7         1 4EF      -0.915100
     23 S           -1.8150     1.4400    -6.2140 sy         1 4EF       1.427200
     24 Cl          -2.0350     0.0140     2.0080 cl         1 4EF      -0.087400
     25 N4           0.0500    -0.0040    -2.3470 nb         1 4EF      -0.836000
     26 N5           2.0430     0.0010    -1.1710 nb         1 4EF      -0.795000
     27 N6          -4.7350    -0.7650    -1.5430 nh         1 4EF      -0.628000
     28 C11         -1.9670    -0.8530    -7.6390 c3         1 4EF       0.224100
     29 H1           0.7570    -0.0000     3.2190 h4         1 4EF       0.184000
     30 H3          -4.5050     0.5140    -5.9050 ha         1 4EF       0.148000
     31 H4          -5.7230    -0.4050    -3.9700 ha         1 4EF       0.140000
     32 H5          -0.9920     0.9460    -3.5160 ha         1 4EF       0.207000
     33 H6           1.9230    -0.0130    -3.2330 h5         1 4EF       0.065100
     34 H7          -4.3690    -2.7610    -2.0710 h1         1 4EF       0.050700
     35 H8          -5.9140    -2.1060    -2.6420 h1         1 4EF       0.050700
     36 H9          -5.4720     1.1000    -0.9340 h1         1 4EF       0.050700
     37 H10         -6.5630     0.1650    -1.9740 h1         1 4EF       0.050700
     38 H11         -2.5890    -0.0400    -0.4380 hn         1 4EF       0.483800
     39 H12         -5.1910    -2.7500     0.2400 h1         1 4EF       0.055200
     40 H13         -6.3110    -3.6620    -0.7870 h1         1 4EF       0.055200
     41 H14         -7.4000     0.1440     0.3320 h1         1 4EF       0.055200
     42 H15         -5.8420    -0.4740     0.9100 h1         1 4EF       0.055200
     43 H16         -0.1260     0.1070    -7.0910 hn         1 4EF       0.454800
     44 H17         -2.8810    -0.3930    -7.9930 h1         1 4EF       0.042033
     45 H18         -2.2060    -1.6230    -6.9160 h1         1 4EF       0.042033
     46 H19         -1.4370    -1.2950    -8.4740 h1         1 4EF       0.042033
     47 H2           2.7640    -0.0030     1.6130 hn         1 4EF       0.315700
@<TRIPOS>BOND
     1    28    22 1
     2    26    15 ar
     3    26     2 ar
     4    22    23 1
     5    15    25 ar
     6    13     2 1
     7    13     3 1
     8     2     1 ar
     9    25    14 ar
    10     3     4 2
    11    16    20 1
    12    16    27 1
    13     1    14 ar
    14     1     4 1
    15    14    19 1
    16    20    18 1
    17     4    24 1
    18    19     8 1
    19     9     8 ar
    20     9    10 ar
    21     8     6 ar
    22    11    23 2
    23    23    10 1
    24    23    12 2
    25    10     5 ar
    26     6    27 1
    27     6     7 ar
    28    27    17 1
    29    18    21 1
    30     5     7 ar
    31    17    21 1
    32     3    29 1
    33     5    30 1
    34     7    31 1
    35     9    32 1
    36    15    33 1
    37    16    34 1
    38    16    35 1
    39    17    36 1
    40    17    37 1
    41    19    38 1
    42    20    39 1
    43    20    40 1
    44    21    41 1
    45    21    42 1
    46    22    43 1
    47    28    44 1
    48    28    45 1
    49    28    46 1
    50    13    47 1
@<TRIPOS>SUBSTRUCTURE
     1 4EF         1 TEMP              0 ****  ****    0 ROOT
