@<TRIPOS>MOLECULE
4EF
   47    50     1     0     0
SMALL
bcc


@<TRIPOS>ATOM
      1 C1           0.0000     0.0000     0.0000 ca         1 4EF      -0.399400
      2 C2           1.4070     0.0000     0.0000 ca         1 4EF       0.298800
      3 C3           0.7180     0.0010     2.1370 cc         1 4EF      -0.272100
      4 C4          -0.4080     0.0050     1.4040 cd         1 4EF      -0.065800
      5 C5          -4.0020     0.4070    -4.9520 ca         1 4EF      -0.019000
      6 C9          -4.0450    -0.2440    -2.6440 ca         1 4EF       0.007600
      7 C10         -4.6860    -0.1090    -3.8660 ca         1 4EF      -0.143000
      8 C8          -2.7100     0.1410    -2.5150 ca         1 4EF      -0.005400
      9 C7          -2.0290     0.6470    -3.6120 ca         1 4EF      -0.036000
     10 C6          -2.6790     0.7830    -4.8250 ca         1 4EF      -0.131500
     11 O2          -2.8030     1.9670    -7.0880 o          1 4EF      -0.588800
     12 O1          -0.7460     2.2170    -5.6910 o          1 4EF      -0.588800
     13 N1           1.8110     0.0000     1.3070 na         1 4EF       0.286900
     14 C12         -0.6740     0.0010    -1.2310 ca         1 4EF       0.581200
     15 C13          1.3710    -0.0090    -2.3010 ca         1 4EF       0.695900
     16 C14         -5.2110    -2.1290    -1.8180 c3         1 4EF       0.106300
     17 C15         -5.8510     0.1100    -1.1590 c3         1 4EF       0.106300
     18 O3          -6.9690    -1.8010    -0.1940 os         1 4EF      -0.409600
     19 N2          -2.0570     0.0080    -1.2840 nu         1 4EF      -0.267300
     20 C16         -5.9060    -2.6810    -0.5700 c3         1 4EF       0.213900
     21 C17         -6.5400    -0.4660     0.0820 c3         1 4EF       0.213900
     22 N3          -1.1210     0.1630    -7.0080 n7         1 4EF      -0.578100
     23 S           -1.8150     1.4400    -6.2140 sy         1 4EF       1.040200
     24 Cl          -2.0350     0.0140     2.0080 cl         1 4EF       0.003600
     25 N4           0.0500    -0.0040    -2.3470 nb         1 4EF      -0.737000
     26 N5           2.0430     0.0010    -1.1710 nb         1 4EF      -0.679000
     27 N6          -4.7350    -0.7650    -1.5430 nh         1 4EF      -0.410000
     28 C11         -1.9670    -0.8530    -7.6390 c3         1 4EF       0.262100
     29 H1           0.7570    -0.0000     3.2190 h4         1 4EF       0.153000
     30 H3          -4.5050     0.5140    -5.9050 ha         1 4EF       0.123000
     31 H4          -5.7230    -0.4050    -3.9700 ha         1 4EF       0.117000
     32 H5          -0.9920     0.9460    -3.5160 ha         1 4EF       0.188000
     33 H6           1.9230    -0.0130    -3.2330 h5         1 4EF      -0.001900
     34 H7          -4.3690    -2.7610    -2.0710 h1         1 4EF       0.023700
     35 H8          -5.9140    -2.1060    -2.6420 h1         1 4EF       0.023700
     36 H9          -5.4720     1.1000    -0.9340 h1         1 4EF       0.023700
     37 H10         -6.5630     0.1650    -1.9740 h1         1 4EF       0.023700
     38 H11         -2.5890    -0.0400    -0.4380 hn         1 4EF       0.309800
     39 H12         -5.1910    -2.7500     0.2400 h1         1 4EF       0.013450
     40 H13         -6.3110    -3.6620    -0.7870 h1         1 4EF       0.013450
     41 H14         -7.4000     0.1440     0.3320 h1         1 4EF       0.013450
     42 H15         -5.8420    -0.4740     0.9100 h1         1 4EF       0.013450
     43 H16         -0.1260     0.1070    -7.0910 hn         1 4EF       0.347800
     44 H17         -2.8810    -0.3930    -7.9930 h1         1 4EF       0.000367
     45 H18         -2.2060    -1.6230    -6.9160 h1         1 4EF       0.000367
     46 H19         -1.4370    -1.2950    -8.4740 h1         1 4EF       0.000367
     47 H2           2.7640    -0.0030     1.6130 hn         1 4EF       0.123700
@<TRIPOS>BOND
     1     1     2 ar  
     2     1     4 1   
     3     1    14 ar  
     4     2    13 1   
     5     2    26 ar  
     6     3     4 2   
     7     3    13 1   
     8     3    29 1   
     9     4    24 1   
    10     5     7 ar  
    11     5    10 ar  
    12     5    30 1   
    13     6     7 ar  
    14     6     8 ar  
    15     6    27 1   
    16     7    31 1   
    17     8     9 ar  
    18     8    19 1   
    19     9    10 ar  
    20     9    32 1   
    21    10    23 1   
    22    11    23 2   
    23    12    23 2   
    24    13    47 1   
    25    14    19 1   
    26    14    25 ar  
    27    15    25 ar  
    28    15    26 ar  
    29    15    33 1   
    30    16    20 1   
    31    16    27 1   
    32    16    34 1   
    33    16    35 1   
    34    17    21 1   
    35    17    27 1   
    36    17    36 1   
    37    17    37 1   
    38    18    20 1   
    39    18    21 1   
    40    19    38 1   
    41    20    39 1   
    42    20    40 1   
    43    21    41 1   
    44    21    42 1   
    45    22    23 1   
    46    22    28 1   
    47    22    43 1   
    48    28    44 1   
    49    28    45 1   
    50    28    46 1   
@<TRIPOS>SUBSTRUCTURE
     1 4EF         1 TEMP              0 ****  ****    0 ROOT
