@<TRIPOS>MOLECULE
molecule
   23    23     1     0     0
SMALL
bcc


@<TRIPOS>ATOM
      1 CAL          0.0000     0.0000     0.0000 c3         1 4EG       0.134700
      2 OAJ          1.4290     0.0000     0.0000 os         1 4EG      -0.415900
      3 CAI          2.0420     0.0000     1.2010 c          1 4EG       0.627300
      4 OAK          1.3790    -0.0010     2.2220 o          1 4EG      -0.535000
      5 CAH          3.5030    -0.0000     1.2780 ce         1 4EG      -0.169200
      6 CAG          4.1210    -0.0000     2.4910 ce         1 4EG       0.136100
      7 CAM          3.3410    -0.0010     3.6920 cg         1 4EG       0.186500
      8 NAN          2.7300     0.0150     4.6500 n1         1 4EG      -0.317800
      9 CAE          5.5970     0.0000     2.5680 ca         1 4EG      -0.078800
     10 CAD          6.3250    -1.0920     2.0890 ca         1 4EG      -0.100500
     11 CAC          7.7020    -1.0850     2.1640 ca         1 4EG      -0.126500
     12 CAB          8.3630     0.0010     2.7130 ca         1 4EG      -0.112000
     13 CAA          7.6480     1.0860     3.1880 ca         1 4EG      -0.126500
     14 CAF          6.2710     1.0940     3.1160 ca         1 4EG      -0.100500
     15 HAL         -0.3610     0.7060     0.7380 h1         1 4EG       0.051367
     16 HAN         -0.3610    -0.9920     0.2420 h1         1 4EG       0.051367
     17 HAM         -0.3610     0.2870    -0.9800 h1         1 4EG       0.051367
     18 HAH          4.0850    -0.5090     0.5200 ha         1 4EG       0.160000
     19 HAD          5.8080    -1.9410     1.6600 ha         1 4EG       0.138500
     20 HAC          8.2690    -1.9300     1.7930 ha         1 4EG       0.137000
     21 HAB          9.4450     0.0040     2.7700 ha         1 4EG       0.135000
     22 HAA          8.1710     1.9330     3.6170 ha         1 4EG       0.137000
     23 HAF          5.7110     1.9450     3.4850 ha         1 4EG       0.138500
@<TRIPOS>BOND
     1     8     7 3   
     2    11    10 ar  
     3    11    12 ar  
     4    10     9 ar  
     5    12    13 ar  
     6     7     6 1   
     7     9     6 1   
     8     9    14 ar  
     9    13    14 ar  
    10     6     5 2   
    11     4     3 2   
    12     5     3 1   
    13     3     2 1   
    14     2     1 1   
    15     1    15 1   
    16     1    16 1   
    17     1    17 1   
    18     5    18 1   
    19    10    19 1   
    20    11    20 1   
    21    12    21 1   
    22    13    22 1   
    23    14    23 1   
@<TRIPOS>SUBSTRUCTURE
     1 4EG         1 TEMP              0 ****  ****    0 ROOT
