@<TRIPOS>MOLECULE
4EG
   23    23     1     0     0
SMALL
bcc


@<TRIPOS>ATOM
      1 CAL          0.0000     0.0000     0.0000 c3         1 4EG       0.262700
      2 OAJ          1.4290     0.0000     0.0000 os         1 4EG      -0.397900
      3 CAI          2.0420     0.0000     1.2010 c          1 4EG       0.698300
      4 OAK          1.3790    -0.0010     2.2220 o          1 4EG      -0.579000
      5 CAH          3.5030    -0.0000     1.2780 ce         1 4EG      -0.195200
      6 CAG          4.1210    -0.0000     2.4910 cf         1 4EG       0.206100
      7 CAM          3.3410    -0.0010     3.6920 ch         1 4EG       0.154500
      8 NAN          2.7140    -0.0190     4.6390 n1         1 4EG      -0.322800
      9 CAE          5.5970     0.0000     2.5680 ca         1 4EG      -0.091800
     10 CAD          6.3250    -1.0920     2.0890 ca         1 4EG      -0.072000
     11 CAC          7.7020    -1.0850     2.1640 ca         1 4EG      -0.097500
     12 CAB          8.3630     0.0010     2.7130 ca         1 4EG      -0.082000
     13 CAA          7.6480     1.0860     3.1880 ca         1 4EG      -0.097500
     14 CAF          6.2710     1.0940     3.1160 ca         1 4EG      -0.072000
     15 HAL         -0.3610     0.9560     0.3600 h1         1 4EG       0.002700
     16 HAN         -0.3610    -0.7900     0.6480 h1         1 4EG       0.002700
     17 HAM         -0.3610    -0.1660    -1.0080 h1         1 4EG       0.002700
     18 HAH          4.0640    -0.8530     0.9150 ha         1 4EG       0.137000
     19 HAD          5.8080    -1.9410     1.6600 ha         1 4EG       0.109000
     20 HAC          8.2690    -1.9300     1.7930 ha         1 4EG       0.108500
     21 HAB          9.4450     0.0040     2.7700 ha         1 4EG       0.105000
     22 HAA          8.1710     1.9330     3.6170 ha         1 4EG       0.108500
     23 HAF          5.7110     1.9450     3.4850 ha         1 4EG       0.109000
@<TRIPOS>BOND
     1     1     2 1   
     2     1    15 1   
     3     1    16 1   
     4     1    17 1   
     5     2     3 1   
     6     3     4 2   
     7     3     5 1   
     8     5     6 2   
     9     5    18 1   
    10     6     7 1   
    11     6     9 1   
    12     7     8 3   
    13     9    10 ar  
    14     9    14 ar  
    15    10    11 ar  
    16    10    19 1   
    17    11    12 ar  
    18    11    20 1   
    19    12    13 ar  
    20    12    21 1   
    21    13    14 ar  
    22    13    22 1   
    23    14    23 1   
@<TRIPOS>SUBSTRUCTURE
     1 4EG         1 TEMP              0 ****  ****    0 ROOT
