@<TRIPOS>MOLECULE
4EH
   44    47     1     0     0
SMALL
bcc


@<TRIPOS>ATOM
      1 O3'          0.0000     0.0000     0.0000 oh         1 4EH      -0.571800
      2 C3'          1.4290     0.0000     0.0000 c3         1 4EH       0.185100
      3 C4'          1.9650     0.0000     1.4500 c3         1 4EH      -0.049700
      4 C5'          2.4050    -1.4050     1.8650 c3         1 4EH       0.100700
      5 S            2.8880    -1.3970     3.6130 ss         1 4EH      -0.406400
      6 C2'          1.9630     1.3020    -0.6270 c3         1 4EH       0.115800
      7 N1'          2.7300     2.0070     0.4240 n3         1 4EH      -0.520600
      8 C1'          3.1840     0.9540     1.3690 c3         1 4EH       0.147800
      9 C10          3.8730     2.7270    -0.1510 c3         1 4EH       0.252000
     10 C9           3.3750     3.8950    -0.9600 cc         1 4EH      -0.262000
     11 C4           2.9510     5.1920    -0.4420 ca         1 4EH       0.419100
     12 N3           2.8600     5.7360     0.7740 nb         1 4EH      -0.560000
     13 C2           2.4280     6.9700     0.9210 ca         1 4EH       0.593900
     14 C8           3.2410     3.9440    -2.3000 cd         1 4EH      -0.264100
     15 N7           2.7610     5.1640    -2.6750 na         1 4EH       0.394600
     16 C5           2.5790     5.9550    -1.5640 ca         1 4EH      -0.475800
     17 C6           2.1260     7.2610    -1.3510 ca         1 4EH       0.533200
     18 N1           2.0670     7.7200    -0.1050 nb         1 4EH      -0.626000
     19 N6           1.7450     8.0590    -2.4180 nv         1 4EH      -0.658500
     20 C6'          3.3550    -3.0720     3.9030 ca         1 4EH       0.400300
     21 C9'          3.7960    -3.4650     5.1650 ca         1 4EH       0.319900
     22 N3'          4.1450    -4.7200     5.3780 nb         1 4EH      -0.536000
     23 C8'          4.0750    -5.6030     4.3960 ca         1 4EH       0.275900
     24 C7'          3.6390    -5.2170     3.1430 ca         1 4EH       0.300900
     25 N2'          3.2820    -3.9620     2.9220 nb         1 4EH      -0.575000
     26 H1          -0.3140    -0.5520    -0.6960 ho         1 4EH       0.385000
     27 H2           1.8100    -0.8580    -0.5400 h1         1 4EH       0.002700
     28 H3           1.2200     0.3920     2.1310 hc         1 4EH       0.073700
     29 H4           1.5840    -2.0980     1.7200 h1         1 4EH       0.047700
     30 H5           3.2480    -1.7140     1.2580 h1         1 4EH       0.047700
     31 H6           2.6120     1.0690    -1.4620 h1         1 4EH       0.021700
     32 H7           1.1360     1.9200    -0.9550 h1         1 4EH       0.021700
     33 H9           4.0480     0.4340     0.9730 h1         1 4EH       0.023700
     34 H10          3.3980     1.3810     2.3410 h1         1 4EH       0.023700
     35 H11          4.4360     2.0580    -0.7920 h1         1 4EH       0.012700
     36 H12          4.5120     3.0860     0.6460 h1         1 4EH       0.012700
     37 H13          2.3640     7.3850     1.9190 h5         1 4EH      -0.000900
     38 H14          3.4800     3.1340    -2.9780 h4         1 4EH       0.143000
     39 H15          2.5760     5.4440    -3.6170 hn         1 4EH       0.115700
     40 H16          2.4160     8.6540    -2.8620 hn         1 4EH       0.276300
     41 H17          0.7910     8.0700    -2.7190 hn         1 4EH       0.276300
     42 H18          3.8530    -2.7420     5.9700 h4         1 4EH       0.004100
     43 H19          4.3640    -6.6320     4.5730 h4         1 4EH      -0.008900
     44 H20          3.5810    -5.9440     2.3420 h4         1 4EH      -0.010900
@<TRIPOS>BOND
     1     1     2 1   
     2     1    26 1   
     3     2     3 1   
     4     2     6 1   
     5     2    27 1   
     6     3     4 1   
     7     3     8 1   
     8     3    28 1   
     9     4     5 1   
    10     4    29 1   
    11     4    30 1   
    12     5    20 1   
    13     6     7 1   
    14     6    31 1   
    15     6    32 1   
    16     7     8 1   
    17     7     9 1   
    18     8    33 1   
    19     8    34 1   
    20     9    10 1   
    21     9    35 1   
    22     9    36 1   
    23    10    11 1   
    24    10    14 2   
    25    11    12 ar  
    26    11    16 ar  
    27    12    13 ar  
    28    13    18 ar  
    29    13    37 1   
    30    14    15 1   
    31    14    38 1   
    32    15    16 1   
    33    15    39 1   
    34    16    17 ar  
    35    17    18 ar  
    36    17    19 1   
    37    19    40 1   
    38    19    41 1   
    39    20    21 ar  
    40    20    25 ar  
    41    21    22 ar  
    42    21    42 1   
    43    22    23 ar  
    44    23    24 ar  
    45    23    43 1   
    46    24    25 ar  
    47    24    44 1   
@<TRIPOS>SUBSTRUCTURE
     1 4EH         1 TEMP              0 ****  ****    0 ROOT
