@<TRIPOS>MOLECULE
molecule
   40    43     1     0     0
SMALL
bcc


@<TRIPOS>ATOM
      1 C1           0.0000     0.0000     0.0000 ca         1 4EJ      -0.044000
      2 C2           1.3990     0.0000     0.0000 ca         1 4EJ      -0.107500
      3 C3           2.0810     0.0000     1.1820 ca         1 4EJ      -0.116000
      4 C11          6.0640     0.2660     4.7280 cc         1 4EJ      -0.295300
      5 C12          5.7730     0.3140     3.3520 cc         1 4EJ       0.671200
      6 C13          6.5160     0.4990     0.9990 c3         1 4EJ       0.248100
      7 C14          7.8020     0.6450     0.2270 ca         1 4EJ      -0.118300
      8 C15          8.4900    -0.4790    -0.1890 ca         1 4EJ      -0.123500
      9 C16          9.6690    -0.3450    -0.8970 ca         1 4EJ      -0.133500
     10 C17         10.1620     0.9140    -1.1880 ca         1 4EJ      -0.101000
     11 C18          9.4730     2.0380    -0.7710 ca         1 4EJ      -0.133500
     12 C19          8.2910     1.9040    -0.0690 ca         1 4EJ      -0.123500
     13 C           -0.7160    -0.0000    -1.2400 cg         1 4EJ       0.238800
     14 C6          -0.6990    -0.0050     1.2120 ca         1 4EJ      -0.107500
     15 C5          -0.0170    -0.0100     2.3940 ca         1 4EJ      -0.116000
     16 C4           1.3830     0.0000     2.3940 ca         1 4EJ       0.044200
     17 C7           2.1200    -0.0050     3.6710 cd         1 4EJ      -0.071300
     18 N4           3.4780     0.0990     3.8330 na         1 4EJ       0.230200
     19 C9           3.7280     0.0500     5.1770 cd         1 4EJ      -0.107300
     20 N1           2.5700    -0.0800     5.8170 nc         1 4EJ      -0.299600
     21 C8           1.5780    -0.1160     4.9350 cc         1 4EJ       0.021600
     22 N3           4.5340     0.2340     2.9260 nd         1 4EJ      -0.593800
     23 C10          5.0570     0.1360     5.6330 cd         1 4EJ       0.019000
     24 H            1.7410     0.4830    -0.9070 ha         1 4EJ       0.142000
     25 H1           3.1020     0.3260     1.0180 ha         1 4EJ       0.156000
     26 H6           7.1460     0.2410     4.6870 ha         1 4EJ       0.159000
     27 H9           6.0830     1.4720     0.8040 h1         1 4EJ       0.059200
     28 H8           5.7750    -0.2750     0.8390 h1         1 4EJ       0.059200
     29 H10          8.5280    -1.5340     0.0550 ha         1 4EJ       0.143000
     30 H11         10.2300    -1.2480    -1.1060 ha         1 4EJ       0.137000
     31 H12         11.1090     0.8360    -1.7070 ha         1 4EJ       0.137000
     32 H13          9.6570     3.0990    -0.8900 ha         1 4EJ       0.137000
     33 H14          7.6440     2.5750     0.4840 ha         1 4EJ       0.143000
     34 H3          -1.7780    -0.0640     1.1330 ha         1 4EJ       0.142000
     35 H2          -0.8160     0.0200     3.1250 ha         1 4EJ       0.156000
     36 H4           0.6620    -0.4380     5.4170 h4         1 4EJ       0.198000
     37 H5           5.2360     0.2980     6.6890 ha         1 4EJ       0.167000
     38 H7           7.7430     0.7980     2.5290 hn         1 4EJ       0.458800
     39 N2           6.8100     0.4480     2.4340 nu         1 4EJ      -0.911900
     40 N           -1.2800     0.0190    -2.2250 n1         1 4EJ      -0.367800
@<TRIPOS>BOND
     1     4    23 2   
     2     4     5 1   
     3    23    19 1   
     4     5    39 1   
     5     5    22 2   
     6    11    12 ar  
     7    11    10 ar  
     8    39     6 1   
     9    12     7 ar  
    10    19    20 2   
    11    19    18 1   
    12    20    21 1   
    13    18    22 1   
    14    18    17 1   
    15    10     9 ar  
    16     7     6 1   
    17     7     8 ar  
    18    21    17 2   
    19    17    16 1   
    20     9     8 ar  
    21    15    16 ar  
    22    15    14 ar  
    23    16     3 ar  
    24    14     1 ar  
    25     3     2 ar  
    26     1     2 ar  
    27     1    13 1   
    28    13    40 3   
    29     2    24 1   
    30     3    25 1   
    31     4    26 1   
    32     6    27 1   
    33     6    28 1   
    34     8    29 1   
    35     9    30 1   
    36    10    31 1   
    37    11    32 1   
    38    12    33 1   
    39    14    34 1   
    40    15    35 1   
    41    21    36 1   
    42    23    37 1   
    43    39    38 1   
@<TRIPOS>SUBSTRUCTURE
     1 4EJ         1 TEMP              0 ****  ****    0 ROOT
