@<TRIPOS>MOLECULE
molecule
   45    49     1     0     0
SMALL
bcc


@<TRIPOS>ATOM
      1 C2           0.0000     0.0000     0.0000 ca         1 4EK       0.135900
      2 C3           1.3850     0.0000     0.0000 ca         1 4EK      -0.162000
      3 C11         -3.1400    -0.0690     3.8080 c3         1 4EK       0.231800
      4 C13         -1.8930    -2.2460     3.3560 cc         1 4EK       0.703200
      5 C16         -1.8400    -4.9590     2.8800 cd         1 4EK      -0.105300
      6 C17         -3.0770    -4.3100     3.0580 cd         1 4EK       0.004000
      7 C18         -3.0990    -2.9700     3.2930 cc         1 4EK      -0.300300
      8 C20         -0.2030    -6.3440     2.5530 cc         1 4EK       0.057600
      9 C21          0.3550    -5.0960     2.7410 cd         1 4EK      -0.206900
     10 C22          1.7920    -4.7610     2.7250 ca         1 4EK       0.518100
     11 C23          2.1990    -3.4410     2.9400 ca         1 4EK      -0.235300
     12 C24          3.5490    -3.1450     2.9210 ca         1 4EK      -0.098000
     13 C25          4.4520    -4.1740     2.6880 ca         1 4EK      -0.261300
     14 C26          3.9820    -5.4580     2.4830 ca         1 4EK       0.423200
     15 F1          -0.6760    -0.0010    -1.1700 f          1 4EK      -0.140900
     16 C4           2.0750     0.0000     1.1970 ca         1 4EK      -0.101000
     17 C5           1.3830     0.0020     2.3940 ca         1 4EK      -0.134000
     18 C6           0.0020     0.0010     2.3960 ca         1 4EK      -0.069300
     19 C7          -0.6910    -0.0030     1.1990 ca         1 4EK      -0.152000
     20 C8          -0.7500     0.0020     3.7010 c3         1 4EK       0.287800
     21 C9          -1.2670     1.4240     4.0080 c3         1 4EK      -0.088400
     22 C10         -2.6660     1.1590     4.6260 c3         1 4EK      -0.097400
     23 N12         -1.9240    -0.8770     3.6030 nh         1 4EK      -0.826300
     24 N14         -0.7400    -2.8510     3.1900 nd         1 4EK      -0.585800
     25 N15         -0.6860    -4.2270     2.9480 na         1 4EK       0.228200
     26 N19         -1.5220    -6.2270     2.6420 nc         1 4EK      -0.293600
     27 N27          2.6890    -5.7180     2.5120 nb         1 4EK      -0.690000
     28 H1           1.9270    -0.0010    -0.9380 ha         1 4EK       0.146000
     29 H2          -3.5450     0.2490     2.8540 h1         1 4EK       0.049200
     30 H3          -3.8760    -0.6320     4.3680 h1         1 4EK       0.049200
     31 H4          -4.0020    -4.8720     3.0090 ha         1 4EK       0.165000
     32 H5          -4.0450    -2.4600     3.4300 ha         1 4EK       0.147000
     33 H6           0.3420    -7.2620     2.3660 h4         1 4EK       0.204000
     34 H7           1.4670    -2.6630     3.1190 ha         1 4EK       0.171000
     35 H8           3.8950    -2.1310     3.0840 ha         1 4EK       0.132000
     36 H9           5.5160    -3.9720     2.6650 ha         1 4EK       0.135000
     37 H10          4.6850    -6.2620     2.3040 h4         1 4EK       0.023100
     38 H11          3.1590     0.0000     1.1980 ha         1 4EK       0.136000
     39 H12          1.9250     0.0040     3.3330 ha         1 4EK       0.133000
     40 H13         -1.7740    -0.0040     1.2000 ha         1 4EK       0.146000
     41 H14         -0.1060    -0.3350     4.5040 h1         1 4EK       0.069700
     42 H15         -0.6220     1.9180     4.7240 hc         1 4EK       0.063200
     43 H16         -1.3560     2.0030     3.0970 hc         1 4EK       0.063200
     44 H17         -2.5830     0.9120     5.6780 hc         1 4EK       0.061700
     45 H18         -3.3240     2.0050     4.4680 hc         1 4EK       0.061700
@<TRIPOS>BOND
     1    22     3 1
     2    22    21 1
     3     3    23 1
     4    21    20 1
     5    15     1 1
     6    19     1 ar
     7    19    18 ar
     8     1     2 ar
     9    23    20 1
    10    23     4 1
    11    20    18 1
    12    18    17 ar
    13     2    16 ar
    14     7     4 1
    15     7     6 2
    16    17    16 ar
    17     4    24 2
    18     6     5 1
    19    24    25 1
    20     5    25 1
    21     5    26 2
    22    25     9 1
    23    11    12 ar
    24    11    10 ar
    25    26     8 1
    26     9    10 1
    27     9     8 2
    28    12    13 ar
    29    10    27 ar
    30    13    14 ar
    31    27    14 ar
    32     2    28 1
    33     3    29 1
    34     3    30 1
    35     6    31 1
    36     7    32 1
    37     8    33 1
    38    11    34 1
    39    12    35 1
    40    13    36 1
    41    14    37 1
    42    16    38 1
    43    17    39 1
    44    19    40 1
    45    20    41 1
    46    21    42 1
    47    21    43 1
    48    22    44 1
    49    22    45 1
@<TRIPOS>SUBSTRUCTURE
     1 4EK         1 TEMP              0 ****  ****    0 ROOT
