@<TRIPOS>MOLECULE
4EK
   45    49     1     0     0
SMALL
bcc


@<TRIPOS>ATOM
      1 C2           0.0000     0.0000     0.0000 ca         1 4EK       0.110900
      2 C3           1.3850     0.0000     0.0000 ca         1 4EK      -0.128000
      3 C11         -3.1400    -0.0690     3.8080 c3         1 4EK       0.165800
      4 C13         -1.8930    -2.2460     3.3560 cc         1 4EK       0.612200
      5 C16         -1.8400    -4.9590     2.8800 cd         1 4EK      -0.332300
      6 C17         -3.0770    -4.3100     3.0580 cd         1 4EK       0.076000
      7 C18         -3.0990    -2.9700     3.2930 cc         1 4EK      -0.327300
      8 C20         -0.2030    -6.3440     2.5530 cc         1 4EK       0.061600
      9 C21          0.3550    -5.0960     2.7410 cd         1 4EK      -0.421900
     10 C22          1.7920    -4.7610     2.7250 ca         1 4EK       0.495100
     11 C23          2.1990    -3.4410     2.9400 ca         1 4EK      -0.236300
     12 C24          3.5490    -3.1450     2.9210 ca         1 4EK      -0.068000
     13 C25          4.4520    -4.1740     2.6880 ca         1 4EK      -0.234300
     14 C26          3.9820    -5.4580     2.4830 ca         1 4EK       0.407200
     15 F1          -0.6760    -0.0010    -1.1700 f          1 4EK      -0.128900
     16 C4           2.0750     0.0000     1.1970 ca         1 4EK      -0.072000
     17 C5           1.3830     0.0020     2.3940 ca         1 4EK      -0.100000
     18 C6           0.0020     0.0010     2.3960 ca         1 4EK      -0.073300
     19 C7          -0.6910    -0.0030     1.1990 ca         1 4EK      -0.129000
     20 C8          -0.7500     0.0020     3.7010 c3         1 4EK       0.206800
     21 C9          -1.2670     1.4240     4.0080 c3         1 4EK      -0.031400
     22 C10         -2.6660     1.1590     4.6260 c3         1 4EK      -0.032400
     23 N12         -1.9240    -0.8770     3.6030 nh         1 4EK      -0.460300
     24 N14         -0.7400    -2.8510     3.1900 nd         1 4EK      -0.745800
     25 N15         -0.6860    -4.2270     2.9480 na         1 4EK       0.757200
     26 N19         -1.5220    -6.2270     2.6420 nc         1 4EK      -0.216600
     27 N27          2.6890    -5.7180     2.5120 nb         1 4EK      -0.576000
     28 H1           1.9270    -0.0010    -0.9380 ha         1 4EK       0.120000
     29 H2          -3.5450     0.2490     2.8540 h1         1 4EK       0.022200
     30 H3          -3.8760    -0.6320     4.3680 h1         1 4EK       0.022200
     31 H4          -4.0020    -4.8720     3.0090 ha         1 4EK       0.121000
     32 H5          -4.0450    -2.4600     3.4300 ha         1 4EK       0.131000
     33 H6           0.3420    -7.2620     2.3660 h4         1 4EK       0.157000
     34 H7           1.4670    -2.6630     3.1190 ha         1 4EK       0.151000
     35 H8           3.8950    -2.1310     3.0840 ha         1 4EK       0.103000
     36 H9           5.5160    -3.9720     2.6650 ha         1 4EK       0.110000
     37 H10          4.6850    -6.2620     2.3040 h4         1 4EK      -0.021900
     38 H11          3.1590     0.0000     1.1980 ha         1 4EK       0.107000
     39 H12          1.9250     0.0040     3.3330 ha         1 4EK       0.110000
     40 H13         -1.7740    -0.0040     1.2000 ha         1 4EK       0.121000
     41 H14         -0.1060    -0.3350     4.5040 h1         1 4EK       0.042700
     42 H15         -0.6220     1.9180     4.7240 hc         1 4EK       0.032200
     43 H16         -1.3560     2.0030     3.0970 hc         1 4EK       0.032200
     44 H17         -2.5830     0.9120     5.6780 hc         1 4EK       0.028700
     45 H18         -3.3240     2.0050     4.4680 hc         1 4EK       0.028700
@<TRIPOS>BOND
     1     1     2 ar  
     2     1    15 1   
     3     1    19 ar  
     4     2    16 ar  
     5     2    28 1   
     6     3    22 1   
     7     3    23 1   
     8     3    29 1   
     9     3    30 1   
    10     4     7 1   
    11     4    23 1   
    12     4    24 2   
    13     5     6 1   
    14     5    25 1   
    15     5    26 2   
    16     6     7 2   
    17     6    31 1   
    18     7    32 1   
    19     8     9 2   
    20     8    26 1   
    21     8    33 1   
    22     9    10 1   
    23     9    25 1   
    24    10    11 ar  
    25    10    27 ar  
    26    11    12 ar  
    27    11    34 1   
    28    12    13 ar  
    29    12    35 1   
    30    13    14 ar  
    31    13    36 1   
    32    14    27 ar  
    33    14    37 1   
    34    16    17 ar  
    35    16    38 1   
    36    17    18 ar  
    37    17    39 1   
    38    18    19 ar  
    39    18    20 1   
    40    19    40 1   
    41    20    21 1   
    42    20    23 1   
    43    20    41 1   
    44    21    22 1   
    45    21    42 1   
    46    21    43 1   
    47    22    44 1   
    48    22    45 1   
    49    24    25 1   
@<TRIPOS>SUBSTRUCTURE
     1 4EK         1 TEMP              0 ****  ****    0 ROOT
