@<TRIPOS>MOLECULE
molecule
   55    58     1     0     0
SMALL
bcc


@<TRIPOS>ATOM
      1 C10          0.0000     0.0000     0.0000 ca         1 4EL      -0.124000
      2 C15         -4.5280    -2.9400     1.1870 ca         1 4EL      -0.239000
      3 C17         -6.7830    -2.1360     1.1740 ca         1 4EL      -0.387500
      4 C24         -8.9350    -1.4250     3.5560 cc         1 4EL       0.696300
      5 C01          3.2330    -0.0010    -6.0520 c3         1 4EL       0.140700
      6 C03          3.4300    -0.0000    -3.6840 ca         1 4EL       0.630600
      7 C04          4.1840    -0.0010    -2.5160 ca         1 4EL      -0.266300
      8 C05          3.5360    -0.0000    -1.2960 ca         1 4EL      -0.060000
      9 C06          2.1380     0.0000    -1.2860 cp         1 4EL      -0.166300
     10 C07          1.4520    -0.0000    -2.4970 ca         1 4EL       0.446200
     11 N08          2.1080     0.0040    -3.6400 nb         1 4EL      -0.777000
     12 C09          1.3940     0.0000     0.0000 cp         1 4EL      -0.077000
     13 C11         -0.6940     0.0060     1.1940 ca         1 4EL      -0.156300
     14 C12         -2.2020     0.0060     1.1850 c3         1 4EL       0.283100
     15 N13         -2.6890    -1.3750     1.1900 nu         1 4EL      -0.796600
     16 C14         -4.0630    -1.6310     1.1840 ca         1 4EL       0.261600
     17 C16         -5.8860    -3.1890     1.1810 ca         1 4EL       0.023500
     18 C18         -6.3240    -0.8330     1.1660 ca         1 4EL       0.023500
     19 C19         -4.9670    -0.5760     1.1730 ca         1 4EL      -0.239000
     20 O21         -9.1350    -1.3030     0.6170 o          1 4EL      -0.627300
     21 O22         -8.6780    -3.7610     0.6210 o          1 4EL      -0.627300
     22 N23         -9.0060    -2.5480     2.7440 nu         1 4EL      -0.823800
     23 N25         -8.5050    -0.2480     3.2040 nc         1 4EL      -0.379000
     24 N26         -8.5110     0.6620     4.0780 nc         1 4EL      -0.292000
     25 C27         -8.9410     0.3650     5.2610 cd         1 4EL       0.415700
     26 S29         -9.4180    -1.3350     5.2520 ss         1 4EL      -0.365800
     27 C30         -0.0130     0.0110     2.3940 ca         1 4EL      -0.080000
     28 C31          1.3830     0.0110     2.4080 ca         1 4EL      -0.103600
     29 C32          2.0880     0.0000     1.2050 ca         1 4EL      -0.068000
     30 C33          2.1120     0.0170     3.6930 c          1 4EL       0.881200
     31 O34          3.4590     0.0160     3.7050 o          1 4EL      -0.829800
     32 O35          1.4960     0.0220     4.7400 o          1 4EL      -0.829800
     33 H1          -0.5400    -0.0010    -0.9390 ha         1 4EL       0.113000
     34 H2          -3.8250    -3.7650     1.1920 ha         1 4EL       0.139500
     35 H3          -9.8740     1.9660     6.3070 hc         1 4EL       0.060033
     36 H4          -9.1510     0.7310     7.3470 hc         1 4EL       0.060033
     37 H5          -8.1170     1.8890     6.4970 hc         1 4EL       0.060033
     38 H6           3.8560     0.0030    -6.9380 h1         1 4EL       0.039367
     39 H7           2.6290     0.8990    -6.0320 h1         1 4EL       0.039367
     40 H8           2.5860    -0.8690    -6.0690 h1         1 4EL       0.039367
     41 H9           5.2530    -0.1690    -2.5620 ha         1 4EL       0.145000
     42 H10          4.0850     0.2350    -0.3920 ha         1 4EL       0.165000
     43 H11          0.3690    -0.0050    -2.5000 h4         1 4EL       0.025100
     44 H12         -2.5680     0.5210     2.0650 h1         1 4EL       0.044200
     45 H13         -2.5580     0.5120     0.2960 h1         1 4EL       0.044200
     46 H14         -2.0390    -2.1350     1.2280 hn         1 4EL       0.451800
     47 H15         -6.2490    -4.2090     1.1850 ha         1 4EL       0.150500
     48 H16         -7.0300    -0.0110     1.1590 ha         1 4EL       0.150500
     49 H17         -4.6070     0.4460     1.1680 ha         1 4EL       0.139500
     50 H18         -9.3810    -3.4030     3.1030 hn         1 4EL       0.470800
     51 H19         -0.5630     0.0180     3.3270 ha         1 4EL       0.153000
     52 H20          3.1720     0.0000     1.2090 ha         1 4EL       0.160000
     53 O02          4.0600    -0.0010    -4.8870 os         1 4EL      -0.451100
     54 C28         -9.0270     1.3040     6.4360 c3         1 4EL      -0.105400
     55 S20         -8.5150    -2.4580     1.1640 sy         1 4EL       1.418200
@<TRIPOS>BOND
     1    32    30 1   
     2    14    13 1   
     3    14    15 1   
     4    30    28 1   
     5    30    31 1   
     6    27    13 ar  
     7    27    28 ar  
     8    13     1 ar  
     9    28    29 ar  
    10    15    16 1   
    11     1    12 ar  
    12    29    12 ar  
    13    12     9 1   
    14    10     9 ar  
    15    10    11 ar  
    16     9     8 ar  
    17    11     6 ar  
    18    16     2 ar  
    19    16    19 ar  
    20     8     7 ar  
    21     6     7 ar  
    22     6    53 1   
    23     2    17 ar  
    24    53     5 1   
    25    19    18 ar  
    26    17     3 ar  
    27    18     3 ar  
    28     3    55 1   
    29    54    25 1   
    30    24    25 2   
    31    24    23 1   
    32    25    26 1   
    33    23     4 2   
    34    55    20 2   
    35    55    22 1   
    36    55    21 2   
    37    26     4 1   
    38     4    22 1   
    39     1    33 1   
    40     2    34 1   
    41    54    35 1   
    42    54    36 1   
    43    54    37 1   
    44     5    38 1   
    45     5    39 1   
    46     5    40 1   
    47     7    41 1   
    48     8    42 1   
    49    10    43 1   
    50    14    44 1   
    51    14    45 1   
    52    15    46 1   
    53    17    47 1   
    54    18    48 1   
    55    19    49 1   
    56    22    50 1   
    57    27    51 1   
    58    29    52 1   
@<TRIPOS>SUBSTRUCTURE
     1 4EL         1 TEMP              0 ****  ****    0 ROOT
