@<TRIPOS>MOLECULE
4EM
   54    54     1     0     0
SMALL
bcc


@<TRIPOS>ATOM
      1 P24          0.0000     0.0000     0.0000 p5         1 4EM       0.667900
      2 O25          1.4800     0.0000     0.0000 o          1 4EM      -0.755167
      3 O26         -0.5370     0.0000     1.5180 o          1 4EM      -0.755167
      4 O27         -0.5360     1.3140    -0.7590 os         1 4EM      -0.480200
      5 C28         -0.1480     2.6390    -0.3910 c3         1 4EM       0.283400
      6 C29         -0.8380     3.6480    -1.3130 c3         1 4EM      -0.098000
      7 C30         -0.4250     3.3790    -2.7610 c3         1 4EM       0.017400
      8 C31         -2.3560     3.5050    -1.1790 c3         1 4EM       0.017400
      9 C32         -0.4220     5.0660    -0.9180 c3         1 4EM       0.136100
     10 O33         -0.9200     5.3630     0.3880 oh         1 4EM      -0.528800
     11 C34          1.0810     5.1660    -0.9170 c          1 4EM       0.565100
     12 O35          1.6790     5.3100     0.1290 o          1 4EM      -0.628100
     13 N36          1.7630     5.0970    -2.0780 ns         1 4EM      -0.235900
     14 C37          3.2280     5.0960    -2.0680 c3         1 4EM       0.066000
     15 C38          3.7470     5.0110    -3.5050 c3         1 4EM      -0.107400
     16 C39          5.2540     5.0100    -3.4950 c          1 4EM       0.582100
     17 O40          5.8540     5.0730    -2.4430 o          1 4EM      -0.629100
     18 N41          5.9350     4.9410    -4.6560 ns         1 4EM      -0.215900
     19 C42          7.4000     4.9400    -4.6470 c3         1 4EM       0.042000
     20 C43          7.9190     4.8550    -6.0840 c3         1 4EM       0.038000
     21 N44          9.3840     4.8540    -6.0740 ns         1 4EM      -0.198900
     22 C45         10.0660     4.7850    -7.2350 c          1 4EM       0.634700
     23 O46          9.4640     4.7220    -8.2910 o          1 4EM      -0.642100
     24 C47         11.5330     4.7850    -7.2260 cc         1 4EM      -0.405900
     25 C49         12.3550     4.7180    -8.3310 cd         1 4EM      -0.081000
     26 C51         13.6720     4.7460    -7.8650 cd         1 4EM      -0.195000
     27 C50         13.6330     4.8280    -6.5130 cc         1 4EM      -0.325300
     28 N48         12.3390     4.8570    -6.1130 na         1 4EM       0.424900
     29 H281         0.9270     2.7390    -0.4860 h1         1 4EM      -0.011300
     30 H283        -0.4390     2.8290     0.6350 h1         1 4EM      -0.011300
     31 H303        -1.0570     2.6050    -3.1790 hc         1 4EM      -0.002467
     32 H301         0.6080     3.0560    -2.7880 hc         1 4EM      -0.002467
     33 H302        -0.5350     4.2870    -3.3420 hc         1 4EM      -0.002467
     34 H312        -2.6730     2.5790    -1.6440 hc         1 4EM      -0.002467
     35 H313        -2.6270     3.4930    -0.1300 hc         1 4EM      -0.002467
     36 H311        -2.8410     4.3400    -1.6690 hc         1 4EM      -0.002467
     37 H32         -0.8310     5.7730    -1.6300 h1         1 4EM      -0.028300
     38 H33         -1.0630     6.2910     0.4660 ho         1 4EM       0.352000
     39 H36          1.2690     5.1090    -2.9480 hn         1 4EM       0.178500
     40 H373         3.5870     6.0090    -1.6080 h1         1 4EM       0.041700
     41 H372         3.5860     4.2440    -1.5030 h1         1 4EM       0.041700
     42 H382         3.3890     4.0970    -3.9640 hc         1 4EM       0.029200
     43 H383         3.3900     5.8630    -4.0690 hc         1 4EM       0.029200
     44 H41          5.4400     4.8890    -5.5240 hn         1 4EM       0.176500
     45 H423         7.7580     4.0880    -4.0820 h1         1 4EM       0.024200
     46 H422         7.7590     5.8540    -4.1870 h1         1 4EM       0.024200
     47 H433         7.5620     5.7080    -6.6490 h1         1 4EM       0.029700
     48 H432         7.5610     3.9420    -6.5440 h1         1 4EM       0.029700
     49 H44          9.8780     4.8710    -5.2040 hn         1 4EM       0.165500
     50 H49         12.0390     4.6550    -9.3650 ha         1 4EM       0.137000
     51 H51         14.5650     4.7080    -8.4760 ha         1 4EM       0.123000
     52 H50         14.4960     4.8680    -5.8590 h4         1 4EM       0.140000
     53 H48         12.0220     4.9150    -5.1650 hn         1 4EM       0.108700
     54 O24         -0.5370    -1.3050    -0.7760 o          1 4EM      -0.755167
@<TRIPOS>BOND
     1     1     2 1   
     2     1     3 1   
     3     1     4 1   
     4     1    54 1   
     5     4     5 1   
     6     5     6 1   
     7     5    29 1   
     8     5    30 1   
     9     6     7 1   
    10     6     8 1   
    11     6     9 1   
    12     7    31 1   
    13     7    32 1   
    14     7    33 1   
    15     8    34 1   
    16     8    35 1   
    17     8    36 1   
    18     9    10 1   
    19     9    11 1   
    20     9    37 1   
    21    10    38 1   
    22    11    12 2   
    23    11    13 1   
    24    13    14 1   
    25    13    39 1   
    26    14    15 1   
    27    14    40 1   
    28    14    41 1   
    29    15    16 1   
    30    15    42 1   
    31    15    43 1   
    32    16    17 2   
    33    16    18 1   
    34    18    19 1   
    35    18    44 1   
    36    19    20 1   
    37    19    45 1   
    38    19    46 1   
    39    20    21 1   
    40    20    47 1   
    41    20    48 1   
    42    21    22 1   
    43    21    49 1   
    44    22    23 2   
    45    22    24 1   
    46    24    25 2   
    47    24    28 1   
    48    25    26 1   
    49    25    50 1   
    50    26    27 2   
    51    26    51 1   
    52    27    28 1   
    53    27    52 1   
    54    28    53 1   
@<TRIPOS>SUBSTRUCTURE
     1 4EM         1 TEMP              0 ****  ****    0 ROOT
