@<TRIPOS>MOLECULE
4EO
   34    36     1     0     0
SMALL
bcc


@<TRIPOS>ATOM
      1 O1           0.0000     0.0000     0.0000 o          1 4EO      -0.715500
      2 C6           1.2170     0.0000     0.0000 c          1 4EO       0.559500
      3 N2           1.9910     0.0000     1.1020 ns         1 4EO       0.018900
      4 C7           3.3240    -0.0010     0.7000 ca         1 4EO      -0.165400
      5 C12          3.3260    -0.0010    -0.6970 ca         1 4EO      -0.153400
      6 C11          4.5290    -0.0030    -1.3860 ca         1 4EO      -0.077000
      7 C10          5.7210     0.0040    -0.6890 ca         1 4EO      -0.102000
      8 C9           5.7200     0.0140     0.6960 ca         1 4EO      -0.099000
      9 C8           4.5270    -0.0010     1.3910 ca         1 4EO      -0.086000
     10 N1           1.9920    -0.0070    -1.1000 n          1 4EO       0.206800
     11 C5           1.5350    -0.0100    -2.4280 ca         1 4EO      -0.161400
     12 C4           1.3150    -1.2120    -3.0830 ca         1 4EO      -0.008000
     13 C13          1.2980     1.1950    -3.0870 ca         1 4EO       0.203100
     14 O2           1.5090     2.3740    -2.4440 oh         1 4EO      -0.472100
     15 C14          0.8480     1.1880    -4.3970 ca         1 4EO      -0.277000
     16 C15          0.6330    -0.0170    -5.0490 ca         1 4EO       0.200100
     17 O3           0.1920    -0.0230    -6.3340 oh         1 4EO      -0.482100
     18 C3           0.8640    -1.2150    -4.3900 ca         1 4EO      -0.155300
     19 C2           0.6310    -2.5230    -5.1020 c3         1 4EO       0.045900
     20 C1          -0.8640    -2.8490    -5.0920 c3         1 4EO       0.003900
     21 H7           1.6640    -0.0010     2.0480 hn         1 4EO       0.189500
     22 H11          4.5340    -0.0110    -2.4690 ha         1 4EO       0.109000
     23 H10          6.6610     0.0160    -1.2280 ha         1 4EO       0.105000
     24 H9           6.6590     0.0190     1.2360 ha         1 4EO       0.105000
     25 H8           4.5300     0.0060     2.4740 ha         1 4EO       0.104000
     26 H6           1.4950    -2.1490    -2.5700 ha         1 4EO       0.118000
     27 H12          0.9670     3.0430    -2.8290 ho         1 4EO       0.410000
     28 H13          0.6630     2.1230    -4.9110 ha         1 4EO       0.121000
     29 H14          0.6990     0.5870    -6.8440 ho         1 4EO       0.404000
     30 H5           1.1760    -3.3110    -4.5970 hc         1 4EO       0.016200
     31 H4           0.9760    -2.4440    -6.1250 hc         1 4EO       0.016200
     32 H2          -1.3410    -2.3800    -5.9430 hc         1 4EO       0.006033
     33 H1          -0.9990    -3.9220    -5.1470 hc         1 4EO       0.006033
     34 H3          -1.3080    -2.4760    -4.1770 hc         1 4EO       0.006033
@<TRIPOS>BOND
     1     1     2 2   
     2     2     3 1   
     3     2    10 1   
     4     3     4 1   
     5     3    21 1   
     6     4     5 ar  
     7     4     9 ar  
     8     5     6 ar  
     9     5    10 1   
    10     6     7 ar  
    11     6    22 1   
    12     7     8 ar  
    13     7    23 1   
    14     8     9 ar  
    15     8    24 1   
    16     9    25 1   
    17    10    11 1   
    18    11    12 ar  
    19    11    13 ar  
    20    12    18 ar  
    21    12    26 1   
    22    13    14 1   
    23    13    15 ar  
    24    14    27 1   
    25    15    16 ar  
    26    15    28 1   
    27    16    17 1   
    28    16    18 ar  
    29    17    29 1   
    30    18    19 1   
    31    19    20 1   
    32    19    30 1   
    33    19    31 1   
    34    20    32 1   
    35    20    33 1   
    36    20    34 1   
@<TRIPOS>SUBSTRUCTURE
     1 4EO         1 TEMP              0 ****  ****    0 ROOT
