@<TRIPOS>MOLECULE
molecule
   34    36     1     0     0
SMALL
bcc


@<TRIPOS>ATOM
      1 O1           0.0000     0.0000     0.0000 o          1 4EO      -0.653500
      2 C6           1.2170     0.0000     0.0000 c          1 4EO       0.807500
      3 N2           1.9910     0.0000     1.1020 ns         1 4EO      -0.449100
      4 C7           3.3240    -0.0010     0.7000 ca         1 4EO      -0.005400
      5 C12          3.3260    -0.0010    -0.6970 ca         1 4EO       0.007600
      6 C11          4.5290    -0.0030    -1.3860 ca         1 4EO      -0.116000
      7 C10          5.7210     0.0040    -0.6890 ca         1 4EO      -0.128000
      8 C9           5.7200     0.0140     0.6960 ca         1 4EO      -0.125000
      9 C8           4.5270    -0.0010     1.3910 ca         1 4EO      -0.128000
     10 N1           1.9920    -0.0070    -1.1000 n          1 4EO      -0.256200
     11 C5           1.5350    -0.0100    -2.4280 ca         1 4EO       0.009600
     12 C4           1.3150    -1.2120    -3.0830 ca         1 4EO      -0.055000
     13 C13          1.2980     1.1950    -3.0870 ca         1 4EO       0.171100
     14 O2           1.5090     2.3740    -2.4440 oh         1 4EO      -0.486100
     15 C14          0.8480     1.1880    -4.3970 ca         1 4EO      -0.281000
     16 C15          0.6330    -0.0170    -5.0490 ca         1 4EO       0.168100
     17 O3           0.1920    -0.0230    -6.3340 oh         1 4EO      -0.502100
     18 C3           0.8640    -1.2150    -4.3900 ca         1 4EO      -0.130300
     19 C2           0.6310    -2.5230    -5.1020 c3         1 4EO      -0.024100
     20 C1          -0.8640    -2.8490    -5.0920 c3         1 4EO      -0.089100
     21 H7           1.6640    -0.0010     2.0480 hn         1 4EO       0.360500
     22 H11          4.5340    -0.0110    -2.4690 ha         1 4EO       0.139000
     23 H10          6.6610     0.0160    -1.2280 ha         1 4EO       0.135000
     24 H9           6.6590     0.0190     1.2360 ha         1 4EO       0.135000
     25 H8           4.5300     0.0060     2.4740 ha         1 4EO       0.134000
     26 H6           1.4950    -2.1490    -2.5700 ha         1 4EO       0.154000
     27 H12          0.9670     3.0430    -2.8290 ho         1 4EO       0.427000
     28 H13          0.6630     2.1230    -4.9110 ha         1 4EO       0.141000
     29 H14          0.6990     0.5870    -6.8440 ho         1 4EO       0.423000
     30 H5           1.1760    -3.3110    -4.5970 hc         1 4EO       0.048200
     31 H4           0.9760    -2.4440    -6.1250 hc         1 4EO       0.048200
     32 H2          -1.3410    -2.3800    -5.9430 hc         1 4EO       0.039367
     33 H1          -0.9990    -3.9220    -5.1470 hc         1 4EO       0.039367
     34 H3          -1.3080    -2.4760    -4.1770 hc         1 4EO       0.039367
@<TRIPOS>BOND
     1    17    16 1
     2    16    15 ar
     3    16    18 ar
     4    19    18 1
     5    19    20 1
     6    15    13 ar
     7    18    12 ar
     8    13    14 1
     9    13    11 ar
    10    12    11 ar
    11    11    10 1
    12     6     7 ar
    13     6     5 ar
    14     7     8 ar
    15     5    10 1
    16     5     4 ar
    17    10     2 1
    18     8     9 ar
    19     4     9 ar
    20     4     3 1
    21     2     1 2
    22     2     3 1
    23     3    21 1
    24     6    22 1
    25     7    23 1
    26     8    24 1
    27     9    25 1
    28    12    26 1
    29    14    27 1
    30    15    28 1
    31    17    29 1
    32    19    30 1
    33    19    31 1
    34    20    32 1
    35    20    33 1
    36    20    34 1
@<TRIPOS>SUBSTRUCTURE
     1 4EO         1 TEMP              0 ****  ****    0 ROOT
