@<TRIPOS>MOLECULE
4EP
   37    39     1     0     0
SMALL
bcc


@<TRIPOS>ATOM
      1 O1           0.0000     0.0000     0.0000 o          1 4EP      -0.717500
      2 C7           1.2170     0.0000     0.0000 c          1 4EP       0.559500
      3 N2           1.9920     0.0000     1.1010 ns         1 4EP       0.019900
      4 C8           3.3250     0.0000     0.6990 ca         1 4EP      -0.166400
      5 C13          3.3260    -0.0010    -0.6980 ca         1 4EP      -0.153400
      6 C12          4.5290    -0.0020    -1.3870 ca         1 4EP      -0.076000
      7 C11          5.7210     0.0060    -0.6910 ca         1 4EP      -0.102000
      8 C10          5.7200     0.0150     0.6940 ca         1 4EP      -0.099000
      9 C9           4.5280     0.0000     1.3900 ca         1 4EP      -0.086000
     10 N1           1.9920    -0.0060    -1.1000 n          1 4EP       0.205800
     11 C6           1.5340    -0.0100    -2.4280 ca         1 4EP      -0.156400
     12 C5           1.3130    -1.2110    -3.0830 ca         1 4EP      -0.014000
     13 C14          1.2970     1.1950    -3.0870 ca         1 4EP       0.196100
     14 O2           1.5080     2.3750    -2.4450 oh         1 4EP      -0.481100
     15 C15          0.8460     1.1890    -4.3950 ca         1 4EP      -0.262000
     16 C16          0.6310    -0.0160    -5.0490 ca         1 4EP       0.193100
     17 O3           0.1890    -0.0220    -6.3350 oh         1 4EP      -0.483100
     18 C4           0.8630    -1.2150    -4.3900 ca         1 4EP      -0.148300
     19 C3           0.6300    -2.5220    -5.1020 c3         1 4EP       0.043900
     20 C2          -0.8650    -2.8490    -5.0920 c3         1 4EP      -0.029400
     21 C1          -1.1020    -4.1760    -5.8140 c3         1 4EP       0.006900
     22 H9           1.6660    -0.0000     2.0470 hn         1 4EP       0.189500
     23 H13          4.5340    -0.0090    -2.4710 ha         1 4EP       0.109000
     24 H12          6.6610     0.0180    -1.2300 ha         1 4EP       0.105000
     25 H11          6.6600     0.0210     1.2340 ha         1 4EP       0.105000
     26 H10          4.5320     0.0080     2.4740 ha         1 4EP       0.105000
     27 H8           1.4940    -2.1480    -2.5710 ha         1 4EP       0.118000
     28 H14          0.8180     2.9790    -2.6630 ho         1 4EP       0.412000
     29 H15          0.6600     2.1240    -4.9090 ha         1 4EP       0.122000
     30 H16          0.7140     0.5670    -6.8510 ho         1 4EP       0.405000
     31 H6           1.1750    -3.3110    -4.5970 hc         1 4EP       0.018700
     32 H7           0.9750    -2.4430    -6.1260 hc         1 4EP       0.018700
     33 H5          -1.4110    -2.0600    -5.5960 hc         1 4EP       0.020700
     34 H4          -1.2110    -2.9280    -4.0680 hc         1 4EP       0.020700
     35 H1          -0.7980    -4.0820    -6.8500 hc         1 4EP      -0.000300
     36 H2          -2.1540    -4.4290    -5.7680 hc         1 4EP      -0.000300
     37 H3          -0.5210    -4.9550    -5.3370 hc         1 4EP      -0.000300
@<TRIPOS>BOND
     1     1     2 2   
     2     2     3 1   
     3     2    10 1   
     4     3     4 1   
     5     3    22 1   
     6     4     5 ar  
     7     4     9 ar  
     8     5     6 ar  
     9     5    10 1   
    10     6     7 ar  
    11     6    23 1   
    12     7     8 ar  
    13     7    24 1   
    14     8     9 ar  
    15     8    25 1   
    16     9    26 1   
    17    10    11 1   
    18    11    12 ar  
    19    11    13 ar  
    20    12    18 ar  
    21    12    27 1   
    22    13    14 1   
    23    13    15 ar  
    24    14    28 1   
    25    15    16 ar  
    26    15    29 1   
    27    16    17 1   
    28    16    18 ar  
    29    17    30 1   
    30    18    19 1   
    31    19    20 1   
    32    19    31 1   
    33    19    32 1   
    34    20    21 1   
    35    20    33 1   
    36    20    34 1   
    37    21    35 1   
    38    21    36 1   
    39    21    37 1   
@<TRIPOS>SUBSTRUCTURE
     1 4EP         1 TEMP              0 ****  ****    0 ROOT
