@<TRIPOS>MOLECULE
4EQ
   47    50     1     0     0
SMALL
bcc


@<TRIPOS>ATOM
      1 O5           0.0000     0.0000     0.0000 oh         1 4EQ      -0.590700
      2 S            1.6600     0.0000     0.0000 s6         1 4EQ       0.325900
      3 O4           3.3200     0.0000     0.0290 oh         1 4EQ      -0.590700
      4 C12          1.6600    -1.2380     1.3210 ca         1 4EQ      -0.106800
      5 C16          1.6580    -0.8480     2.6460 ca         1 4EQ       0.469200
      6 N4           1.6580    -1.7440     3.6130 nb         1 4EQ      -0.594000
      7 C15          1.6580    -3.0370     3.3600 ca         1 4EQ       0.443200
      8 C14          1.6580    -3.5040     2.0590 ca         1 4EQ      -0.244300
      9 C13          1.6540    -2.5910     1.0150 ca         1 4EQ       0.021000
     10 N3           1.6600     1.7040     0.3990 n7         1 4EQ      -1.066000
     11 C11          1.6610     2.5280    -0.8170 c3         1 4EQ       0.419100
     12 C10          1.2930     3.9470    -0.4620 ca         1 4EQ      -0.062300
     13 C9           2.2830     4.8500    -0.1260 ca         1 4EQ      -0.109000
     14 C17         -0.0340     4.3400    -0.4810 ca         1 4EQ      -0.136000
     15 C18         -0.3810     5.6360    -0.1570 ca         1 4EQ      -0.062000
     16 C19          0.6050     6.5490     0.1880 ca         1 4EQ      -0.171400
     17 C8           1.9440     6.1540     0.2000 ca         1 4EQ      -0.164400
     18 N2           2.6890     7.2700     0.5740 ns         1 4EQ       0.030900
     19 C7           1.8430     8.2970     0.7780 c          1 4EQ       0.558500
     20 O3           2.1700     9.4200     1.1140 o          1 4EQ      -0.710500
     21 N1           0.5780     7.8930     0.5550 n          1 4EQ       0.201800
     22 C4          -0.5720     8.6920     0.6640 ca         1 4EQ      -0.139400
     23 C5          -1.2500     8.7710     1.8710 ca         1 4EQ      -0.028000
     24 C6          -2.3820     9.5570     1.9790 ca         1 4EQ      -0.101600
     25 Cl          -3.2290     9.6540     3.4910 cl         1 4EQ       0.008600
     26 C3          -1.0280     9.4110    -0.4380 ca         1 4EQ       0.185100
     27 O2          -0.3620     9.3400    -1.6210 oh         1 4EQ      -0.487100
     28 C2          -2.1620    10.1990    -0.3270 ca         1 4EQ      -0.208000
     29 C1          -2.8420    10.2700     0.8800 ca         1 4EQ       0.180100
     30 O1          -3.9550    11.0430     0.9900 oh         1 4EQ      -0.491100
     31 H16         -0.3140    -0.5770     0.6760 ho         1 4EQ       0.396000
     32 H17          3.6210    -0.4630     0.7930 ho         1 4EQ       0.396000
     33 H13          1.6580     0.2060     2.9000 h4         1 4EQ       0.001100
     34 H12          1.6580    -3.7490     4.1770 h4         1 4EQ      -0.018900
     35 H11          1.6580    -4.5690     1.8650 ha         1 4EQ       0.120000
     36 H10          1.6500    -2.9130    -0.0190 ha         1 4EQ       0.121000
     37 H9           1.5640     2.2430    -0.4390 hn         1 4EQ       0.453800
     38 H7           2.6820     2.7480    -1.1040 h1         1 4EQ       0.034700
     39 H8           1.1680     1.9910    -1.6180 h1         1 4EQ       0.034700
     40 H6           2.9280     4.6550     0.7220 ha         1 4EQ       0.141000
     41 H14         -0.7550     3.8410     0.1550 ha         1 4EQ       0.147000
     42 H15         -1.4210     5.9390    -0.1740 ha         1 4EQ       0.117000
     43 H5           3.6810     7.2980     0.7080 hn         1 4EQ       0.194500
     44 H4          -0.9090     8.1950     2.7230 ha         1 4EQ       0.125000
     45 H3          -0.1240    10.2090    -1.9010 ho         1 4EQ       0.416000
     46 H2          -2.5190    10.7590    -1.1830 ha         1 4EQ       0.130000
     47 H1          -3.7020    11.9420     1.1160 ho         1 4EQ       0.412000
@<TRIPOS>BOND
     1     1     2 1   
     2     1    31 1   
     3     2     3 1   
     4     2     4 1   
     5     2    10 3   
     6     3    32 1   
     7     4     5 ar  
     8     4     9 ar  
     9     5     6 ar  
    10     5    33 1   
    11     6     7 ar  
    12     7     8 ar  
    13     7    34 1   
    14     8     9 ar  
    15     8    35 1   
    16     9    36 1   
    17    10    11 1   
    18    10    37 1   
    19    11    12 1   
    20    11    38 1   
    21    11    39 1   
    22    12    13 ar  
    23    12    14 ar  
    24    13    17 ar  
    25    13    40 1   
    26    14    15 ar  
    27    14    41 1   
    28    15    16 ar  
    29    15    42 1   
    30    16    17 ar  
    31    16    21 1   
    32    17    18 1   
    33    18    19 1   
    34    18    43 1   
    35    19    20 2   
    36    19    21 1   
    37    21    22 1   
    38    22    23 ar  
    39    22    26 ar  
    40    23    24 ar  
    41    23    44 1   
    42    24    25 1   
    43    24    29 ar  
    44    26    27 1   
    45    26    28 ar  
    46    27    45 1   
    47    28    29 ar  
    48    28    46 1   
    49    29    30 1   
    50    30    47 1   
@<TRIPOS>SUBSTRUCTURE
     1 4EQ         1 TEMP              0 ****  ****    0 ROOT
