@<TRIPOS>MOLECULE
4ER
   23    24     1     0     0
SMALL
bcc


@<TRIPOS>ATOM
      1 Cl           0.0000     0.0000     0.0000 cl         1 4ER       0.018600
      2 C9           1.7360     0.0000     0.0000 ca         1 4ER      -0.000600
      3 C8           2.4280     0.0000     1.1960 ca         1 4ER      -0.120000
      4 C7           3.8110    -0.0060     1.1970 ca         1 4ER      -0.070000
      5 C6           4.5090    -0.0120     0.0030 ca         1 4ER      -0.121000
      6 C5           3.8290    -0.0110    -1.1980 ca         1 4ER      -0.044000
      7 C4           2.4350    -0.0060    -1.2060 cp         1 4ER      -0.169500
      8 C3           1.7000    -0.0110    -2.4940 cp         1 4ER       0.747500
      9 N4           0.3690    -0.0060    -2.4990 nb         1 4ER      -0.734000
     10 C2          -0.2900    -0.0090    -3.6530 ca         1 4ER       0.765900
     11 N3          -1.6710    -0.0040    -3.6600 nv         1 4ER      -0.562000
     12 N2           0.3800    -0.0200    -4.8010 nb         1 4ER      -0.751000
     13 N5           2.3700    -0.0170    -3.6430 nb         1 4ER      -0.734000
     14 C1           1.7090    -0.0260    -4.7960 ca         1 4ER       0.765900
     15 N1           2.4040    -0.0370    -5.9890 nv         1 4ER      -0.562000
     16 H8           1.8870     0.0050     2.1340 ha         1 4ER       0.115000
     17 H7           4.3500    -0.0060     2.1370 ha         1 4ER       0.103000
     18 H6           5.5920    -0.0160     0.0110 ha         1 4ER       0.107000
     19 H5           4.3780    -0.0150    -2.1320 ha         1 4ER       0.128000
     20 H4          -2.1700    -0.5590    -4.3260 hn         1 4ER       0.279550
     21 H3          -2.1720     0.5290    -2.9770 hn         1 4ER       0.279550
     22 H1           2.3770    -0.8480    -6.5760 hn         1 4ER       0.279550
     23 H2           2.9070     0.7760    -6.2830 hn         1 4ER       0.279550
@<TRIPOS>BOND
     1     1     2 1   
     2     2     3 ar  
     3     2     7 ar  
     4     3     4 ar  
     5     3    16 1   
     6     4     5 ar  
     7     4    17 1   
     8     5     6 ar  
     9     5    18 1   
    10     6     7 ar  
    11     6    19 1   
    12     7     8 1   
    13     8     9 ar  
    14     8    13 ar  
    15     9    10 ar  
    16    10    11 1   
    17    10    12 ar  
    18    11    20 1   
    19    11    21 1   
    20    12    14 ar  
    21    13    14 ar  
    22    14    15 1   
    23    15    22 1   
    24    15    23 1   
@<TRIPOS>SUBSTRUCTURE
     1 4ER         1 TEMP              0 ****  ****    0 ROOT
