@<TRIPOS>MOLECULE
molecule
   23    24     1     0     0
SMALL
bcc


@<TRIPOS>ATOM
      1 Cl           0.0000     0.0000     0.0000 cl         1 4ER      -0.067400
      2 C9           1.7360     0.0000     0.0000 ca         1 4ER       0.071400
      3 C8           2.4280     0.0000     1.1960 ca         1 4ER      -0.142000
      4 C7           3.8110    -0.0060     1.1970 ca         1 4ER      -0.099000
      5 C6           4.5090    -0.0120     0.0030 ca         1 4ER      -0.148000
      6 C5           3.8290    -0.0110    -1.1980 ca         1 4ER      -0.069000
      7 C4           2.4350    -0.0060    -1.2060 cp         1 4ER      -0.147500
      8 C3           1.7000    -0.0110    -2.4940 cp         1 4ER       0.809500
      9 N4           0.3690    -0.0060    -2.4990 nb         1 4ER      -0.827000
     10 C2          -0.2900    -0.0090    -3.6530 ca         1 4ER       0.985400
     11 N3          -1.6710    -0.0040    -3.6600 nv         1 4ER      -1.026000
     12 N2           0.3800    -0.0200    -4.8010 nb         1 4ER      -0.855000
     13 N5           2.3700    -0.0170    -3.6430 nb         1 4ER      -0.827000
     14 C1           1.7090    -0.0260    -4.7960 ca         1 4ER       0.985400
     15 N1           2.4040    -0.0370    -5.9890 nv         1 4ER      -1.026000
     16 H8           1.8870     0.0050     2.1340 ha         1 4ER       0.146000
     17 H7           4.3500    -0.0060     2.1370 ha         1 4ER       0.136000
     18 H6           5.5920    -0.0160     0.0110 ha         1 4ER       0.137000
     19 H5           4.3780    -0.0150    -2.1320 ha         1 4ER       0.163000
     20 H4          -2.1700    -0.5590    -4.3260 hn         1 4ER       0.449800
     21 H3          -2.1720     0.5290    -2.9770 hn         1 4ER       0.449800
     22 H1           2.3770    -0.8480    -6.5760 hn         1 4ER       0.449800
     23 H2           2.9070     0.7760    -6.2830 hn         1 4ER       0.449800
@<TRIPOS>BOND
     1     4     5 ar  
     2     4     3 ar  
     3     5     6 ar  
     4     3     2 ar  
     5    11    10 1   
     6     6     7 ar  
     7     9    10 ar  
     8     9     8 ar  
     9     2     7 ar  
    10     2     1 1   
    11     7     8 1   
    12    10    12 ar  
    13     8    13 ar  
    14    12    14 ar  
    15    13    14 ar  
    16    14    15 1   
    17     3    16 1   
    18     4    17 1   
    19     5    18 1   
    20     6    19 1   
    21    11    20 1   
    22    11    21 1   
    23    15    22 1   
    24    15    23 1   
@<TRIPOS>SUBSTRUCTURE
     1 4ER         1 TEMP              0 ****  ****    0 ROOT
