@<TRIPOS>MOLECULE
4ES
   27    28     1     0     0
SMALL
bcc


@<TRIPOS>ATOM
      1 O2           0.0000     0.0000     0.0000 o          1 4ES      -0.447500
      2 N4           1.2190     0.0000     0.0000 no         1 4ES       1.045200
      3 O1           1.8270     0.0000     1.0550 o          1 4ES      -0.447500
      4 C9           1.9590    -0.0060    -1.2820 ca         1 4ES      -0.434200
      5 C8           1.2650    -0.0110    -2.4780 ca         1 4ES      -0.020000
      6 C7           1.9500    -0.0160    -3.6770 ca         1 4ES      -0.100000
      7 C10          3.3420     0.0010    -1.2770 ca         1 4ES      -0.021000
      8 C11          4.0380    -0.0030    -2.4710 ca         1 4ES      -0.040600
      9 Cl           5.7750     0.0050    -2.4640 cl         1 4ES       0.049600
     10 C6           3.3430    -0.0150    -3.6800 cp         1 4ES      -0.093500
     11 C4           4.0850    -0.0200    -4.9640 cp         1 4ES       0.507800
     12 C3           3.3960    -0.0320    -6.1810 ca         1 4ES      -0.410600
     13 N1           5.4150    -0.0100    -4.9770 nb         1 4ES      -0.697000
     14 C5           6.0790    -0.0090    -6.1210 ca         1 4ES       0.719900
     15 N2           7.4630     0.0090    -6.1000 nv         1 4ES      -0.491500
     16 N3           5.4520    -0.0200    -7.2900 nb         1 4ES      -0.690000
     17 C2           4.1300    -0.0370    -7.3530 ca         1 4ES       0.469600
     18 C1           3.4320    -0.0490    -8.6880 c3         1 4ES      -0.045400
     19 H8           0.1820    -0.0120    -2.4750 ha         1 4ES       0.135000
     20 H7           1.4050    -0.0230    -4.6130 ha         1 4ES       0.125000
     21 H9           3.8800     0.0100    -0.3370 ha         1 4ES       0.143000
     22 H4           2.3130    -0.0450    -6.2050 ha         1 4ES       0.133000
     23 H5           7.9770     0.0120    -6.9590 hn         1 4ES       0.276800
     24 H6           7.9500     0.0190    -5.2260 hn         1 4ES       0.276800
     25 H2           2.8150     0.8370    -8.7810 hc         1 4ES       0.018700
     26 H1           4.1700    -0.0590    -9.4810 hc         1 4ES       0.018700
     27 H3           2.8100    -0.9320    -8.7620 hc         1 4ES       0.018700
@<TRIPOS>BOND
     1     1     2 1   
     2     2     3 1   
     3     2     4 1   
     4     4     5 ar  
     5     4     7 ar  
     6     5     6 ar  
     7     5    19 1   
     8     6    10 ar  
     9     6    20 1   
    10     7     8 ar  
    11     7    21 1   
    12     8     9 1   
    13     8    10 ar  
    14    10    11 1   
    15    11    12 ar  
    16    11    13 ar  
    17    12    17 ar  
    18    12    22 1   
    19    13    14 ar  
    20    14    15 1   
    21    14    16 ar  
    22    15    23 1   
    23    15    24 1   
    24    16    17 ar  
    25    17    18 1   
    26    18    25 1   
    27    18    26 1   
    28    18    27 1   
@<TRIPOS>SUBSTRUCTURE
     1 4ES         1 TEMP              0 ****  ****    0 ROOT
