@<TRIPOS>MOLECULE
molecule
   26    27     1     0     0
SMALL
bcc


@<TRIPOS>ATOM
      1 Cl           0.0000     0.0000     0.0000 cl         1 4ET      -0.098400
      2 C10          1.7360     0.0000     0.0000 ca         1 4ET       0.003400
      3 C9           2.4220     0.0000     1.1960 ca         1 4ET      -0.067000
      4 C11          2.4270    -0.0060    -1.2030 ca         1 4ET      -0.084000
      5 C12          3.8070    -0.0060    -1.2140 ca         1 4ET      -0.186000
      6 C13          4.5140    -0.0010    -0.0220 ca         1 4ET       0.145100
      7 O3           5.8710    -0.0020    -0.0330 oh         1 4ET      -0.504100
      8 C8           3.8200    -0.0010     1.1970 ca         1 4ET      -0.168600
      9 C7           4.5600    -0.0000     2.4720 c          1 4ET       0.606300
     10 O2           4.6410     1.0210     3.1290 o          1 4ET      -0.514100
     11 C4           5.2040    -1.2390     2.9520 ca         1 4ET      -0.179600
     12 C3           6.0010    -1.2150     4.1000 ca         1 4ET      -0.059000
     13 C2           6.6000    -2.3720     4.5450 ca         1 4ET      -0.171000
     14 C5           5.0140    -2.4400     2.2630 ca         1 4ET      -0.059000
     15 C6           5.6160    -3.5930     2.7130 ca         1 4ET      -0.171000
     16 C1           6.4130    -3.5640     3.8530 ca         1 4ET       0.135100
     17 O1           7.0050    -4.7020     4.2950 oh         1 4ET      -0.522100
     18 H6           1.8790     0.0000     2.1330 ha         1 4ET       0.159000
     19 H7           1.8800    -0.0100    -2.1380 ha         1 4ET       0.149000
     20 H8           4.3400    -0.0100    -2.1580 ha         1 4ET       0.145000
     21 H9           6.1800     0.6820    -0.6030 ho         1 4ET       0.429000
     22 H3           6.1470    -0.2870     4.6400 ha         1 4ET       0.148000
     23 H2           7.2190    -2.3540     5.4340 ha         1 4ET       0.145000
     24 H4           4.3940    -2.4630     1.3750 ha         1 4ET       0.148000
     25 H5           5.4710    -4.5230     2.1780 ha         1 4ET       0.145000
     26 H1           7.8830    -4.7510     3.9570 ho         1 4ET       0.424000
@<TRIPOS>BOND
     1     4     5 ar  
     2     4     2 ar  
     3     5     6 ar  
     4     1     2 1   
     5     2     3 ar  
     6     6     7 1   
     7     6     8 ar  
     8     3     8 ar  
     9     8     9 1   
    10    14    15 ar  
    11    14    11 ar  
    12    15    16 ar  
    13     9    11 1   
    14     9    10 2   
    15    11    12 ar  
    16    16    17 1   
    17    16    13 ar  
    18    12    13 ar  
    19     3    18 1   
    20     4    19 1   
    21     5    20 1   
    22     7    21 1   
    23    12    22 1   
    24    13    23 1   
    25    14    24 1   
    26    15    25 1   
    27    17    26 1   
@<TRIPOS>SUBSTRUCTURE
     1 4ET         1 TEMP              0 ****  ****    0 ROOT
