@<TRIPOS>MOLECULE
molecule
   27    28     1     0     0
SMALL
bcc


@<TRIPOS>ATOM
      1 O2           0.0000     0.0000     0.0000 o          1 4EU      -0.521100
      2 C7           1.2170     0.0000     0.0000 c          1 4EU       0.607300
      3 C4           1.9550     0.0000     1.2770 ca         1 4EU      -0.179600
      4 C3           3.3490     0.1140     1.2820 ca         1 4EU      -0.059000
      5 C2           4.0340     0.1140     2.4760 ca         1 4EU      -0.172000
      6 C5           1.2630    -0.1090     2.4870 ca         1 4EU      -0.059000
      7 C6           1.9570    -0.1090     3.6770 ca         1 4EU      -0.172000
      8 C1           3.3420    -0.0000     3.6760 ca         1 4EU       0.135100
      9 O1           4.0210    -0.0000     4.8500 oh         1 4EU      -0.522100
     10 C8           1.9520    -0.0060    -1.2760 ca         1 4EU      -0.188600
     11 C13          2.5610    -1.1860    -1.7330 ca         1 4EU       0.159100
     12 O4           2.4740    -2.3260    -1.0030 oh         1 4EU      -0.502100
     13 C12          3.2500    -1.1800    -2.9340 ca         1 4EU      -0.220000
     14 C11          3.3350    -0.0110    -3.6770 ca         1 4EU       0.145100
     15 O3           4.0100    -0.0050    -4.8540 oh         1 4EU      -0.520100
     16 C10          2.7290     1.1560    -3.2200 ca         1 4EU      -0.180000
     17 C9           2.0420     1.1630    -2.0400 ca         1 4EU      -0.059000
     18 H3           3.8880     0.2030     0.3470 ha         1 4EU       0.149000
     19 H2           5.1140     0.2010     2.4800 ha         1 4EU       0.144500
     20 H4           0.1830    -0.1940     2.4880 ha         1 4EU       0.149000
     21 H5           1.4210    -0.1960     4.6150 ha         1 4EU       0.144500
     22 H1           4.0380     0.8740     5.2040 ho         1 4EU       0.424000
     23 H10          2.1880    -3.0330    -1.5570 ho         1 4EU       0.429000
     24 H9           3.7220    -2.0860    -3.2930 ha         1 4EU       0.151000
     25 H8           3.4080    -0.1600    -5.5630 ho         1 4EU       0.425000
     26 H7           2.7980     2.0640    -3.8080 ha         1 4EU       0.146000
     27 H6           1.5740     2.0750    -1.6910 ha         1 4EU       0.147000
@<TRIPOS>BOND
     1     7     6 ar
     2     7     8 ar
     3     6     3 ar
     4     1     2 2
     5     9     8 1
     6     8     5 ar
     7     3     2 1
     8     3     4 ar
     9     2    10 1
    10     5     4 ar
    11    10    17 ar
    12    10    11 ar
    13    12    11 1
    14    17    16 ar
    15    11    13 ar
    16    16    14 ar
    17    13    14 ar
    18    14    15 1
    19     4    18 1
    20     5    19 1
    21     6    20 1
    22     7    21 1
    23     9    22 1
    24    12    23 1
    25    13    24 1
    26    15    25 1
    27    16    26 1
    28    17    27 1
@<TRIPOS>SUBSTRUCTURE
     1 4EU         1 TEMP              0 ****  ****    0 ROOT
