@<TRIPOS>MOLECULE
molecule
   27    28     1     0     0
SMALL
bcc


@<TRIPOS>ATOM
      1 O2           0.0000     0.0000     0.0000 o          1 4EV      -0.515100
      2 C7           1.2160     0.0000     0.0000 c          1 4EV       0.606300
      3 C5           1.9550     0.0000     1.2800 ca         1 4EV      -0.155600
      4 C4           3.3470     0.1150     1.2860 ca         1 4EV      -0.087000
      5 C3           4.0340     0.1140     2.4830 ca         1 4EV      -0.130000
      6 C2           3.3480    -0.0010     3.6780 ca         1 4EV      -0.135000
      7 C6           1.2650    -0.1100     2.4890 ca         1 4EV      -0.089000
      8 C1           1.9650    -0.1160     3.6830 ca         1 4EV       0.089100
      9 O1           1.2960    -0.2230     4.8610 oh         1 4EV      -0.518100
     10 C8           1.9520    -0.0050    -1.2740 ca         1 4EV      -0.187600
     11 C13          2.5620    -1.1850    -1.7320 ca         1 4EV       0.159100
     12 O4           2.4750    -2.3250    -1.0020 oh         1 4EV      -0.504100
     13 C12          3.2510    -1.1770    -2.9320 ca         1 4EV      -0.220000
     14 C11          3.3350    -0.0080    -3.6750 ca         1 4EV       0.145100
     15 O3           4.0120    -0.0020    -4.8520 oh         1 4EV      -0.520100
     16 C10          2.7290     1.1590    -3.2180 ca         1 4EV      -0.179000
     17 C9           2.0420     1.1640    -2.0380 ca         1 4EV      -0.058000
     18 H4           3.8880     0.2040     0.3520 ha         1 4EV       0.143000
     19 H3           5.1140     0.2030     2.4870 ha         1 4EV       0.137000
     20 H2           3.8930    -0.0040     4.6140 ha         1 4EV       0.139000
     21 H5           0.1850    -0.2000     2.4910 ha         1 4EV       0.162000
     22 H1           1.3820    -1.1010     5.1920 ho         1 4EV       0.419000
     23 H10          2.1880    -3.0320    -1.5560 ho         1 4EV       0.429000
     24 H9           3.7240    -2.0830    -3.2920 ha         1 4EV       0.150000
     25 H8           3.4100    -0.1600    -5.5610 ho         1 4EV       0.425000
     26 H7           2.7990     2.0670    -3.8050 ha         1 4EV       0.147000
     27 H6           1.5730     2.0760    -1.6890 ha         1 4EV       0.148000
@<TRIPOS>BOND
     1     9     8 1
     2     8     7 ar
     3     8     6 ar
     4     7     3 ar
     5     1     2 2
     6     6     5 ar
     7     3     2 1
     8     3     4 ar
     9     2    10 1
    10     5     4 ar
    11    10    17 ar
    12    10    11 ar
    13    12    11 1
    14    17    16 ar
    15    11    13 ar
    16    16    14 ar
    17    13    14 ar
    18    14    15 1
    19     4    18 1
    20     5    19 1
    21     6    20 1
    22     7    21 1
    23     9    22 1
    24    12    23 1
    25    13    24 1
    26    15    25 1
    27    16    26 1
    28    17    27 1
@<TRIPOS>SUBSTRUCTURE
     1 4EV         1 TEMP              0 ****  ****    0 ROOT
