@<TRIPOS>MOLECULE
4EW
   50    55     1     0     0
SMALL
bcc


@<TRIPOS>ATOM
      1 C23          0.0000     0.0000     0.0000 c3         1 4EW      -0.026900
      2 C24          1.5300     0.0000     0.0000 c3         1 4EW      -0.021900
      3 C25          2.0400     0.0000     1.4420 c3         1 4EW      -0.051700
      4 C26          1.5310    -1.2490     2.1640 c3         1 4EW      -0.021900
      5 C27          0.0010    -1.2490     2.1640 c3         1 4EW      -0.026900
      6 C28         -0.5020     2.4800     1.4520 cc         1 4EW       0.174800
      7 C1           2.0700     7.8850     5.4230 ca         1 4EW      -0.006000
      8 C2           2.0090     9.2580     5.5990 ca         1 4EW      -0.187900
      9 C3           1.5700    10.0570     4.5550 ca         1 4EW       0.417200
     10 N4           1.2080     9.5430     3.3980 nb         1 4EW      -0.563000
     11 C5           1.2460     8.2360     3.1750 ca         1 4EW       0.216800
     12 C6           1.6860     7.3660     4.1870 ca         1 4EW      -0.168100
     13 C7           1.6070     6.0090     3.6240 cc         1 4EW      -0.234000
     14 C8           1.1420     6.1450     2.3550 cd         1 4EW      -0.208100
     15 N9           0.9300     7.4620     2.0810 na         1 4EW       0.287900
     16 C11          1.9650     4.7450     4.3040 ca         1 4EW       0.763800
     17 N12          2.4050     4.7870     5.5560 nb         1 4EW      -0.659000
     18 C13          2.7340     3.6770     6.1980 ca         1 4EW       0.473200
     19 C14          2.6180     2.4600     5.5510 ca         1 4EW      -0.235700
     20 C15          2.1510     2.4480     4.2320 ca         1 4EW       0.536200
     21 N16          1.8340     3.5980     3.6490 nb         1 4EW      -0.708000
     22 N17          2.0190     1.2510     3.5440 nu         1 4EW      -0.498900
     23 C18          1.5310     1.2500     2.1630 c3         1 4EW       0.136500
     24 C20          0.0010     1.2500     2.1630 c3         1 4EW      -0.061000
     25 C22         -0.5100     0.0010     1.4420 c3         1 4EW      -0.036700
     26 N29          0.0610     3.0780     0.3850 na         1 4EW       0.390600
     27 N31         -0.6790     4.0910     0.0840 nc         1 4EW      -0.417800
     28 N32         -1.6670     4.1440     0.9080 nd         1 4EW      -0.027000
     29 N33         -1.5750     3.1720     1.7490 nd         1 4EW      -0.337000
     30 H1          -0.3610     0.8840    -0.5110 hc         1 4EW       0.020450
     31 H2          -0.3610    -0.8850    -0.5100 hc         1 4EW       0.020450
     32 H3           1.8920    -0.8850    -0.5110 hc         1 4EW       0.018450
     33 H4           1.8920     0.8840    -0.5110 hc         1 4EW       0.018450
     34 H5           3.1230    -0.0000     1.4420 hc         1 4EW       0.036700
     35 H6           1.8910    -1.2480     3.1860 hc         1 4EW       0.018450
     36 H7           1.8920    -2.1340     1.6550 hc         1 4EW       0.018450
     37 H8          -0.3600    -2.1330     1.6540 hc         1 4EW       0.020450
     38 H9          -0.3600    -1.2490     3.1850 hc         1 4EW       0.020450
     39 H10          2.4090     7.2350     6.2200 ha         1 4EW       0.139000
     40 H11          1.5240    11.1300     4.6940 h4         1 4EW      -0.012900
     41 H12          0.9670     5.3290     1.6650 h4         1 4EW       0.145000
     42 H13          0.5880     7.8160     1.2100 hn         1 4EW       0.125700
     43 H14          3.0920     3.7220     7.2200 h4         1 4EW      -0.005900
     44 H15          2.3000     0.3920     3.9750 hn         1 4EW       0.316800
     45 H16          1.8920     2.1340     1.6510 h1         1 4EW       0.042700
     46 H17         -0.3600     1.2500     3.1850 hc         1 4EW       0.071700
     47 H18         -1.5930     0.0000     1.4420 hc         1 4EW       0.046700
     48 H19          0.8970     2.7910    -0.0840 hn         1 4EW       0.172700
     49 F34          2.9460     1.3100     6.1790 f          1 4EW      -0.118900
     50 Cl3          2.4790     9.9680     7.1110 cl         1 4EW      -0.015400
@<TRIPOS>BOND
     1     1     2 1   
     2     1    25 1   
     3     1    30 1   
     4     1    31 1   
     5     2     3 1   
     6     2    32 1   
     7     2    33 1   
     8     3     4 1   
     9     3    23 1   
    10     3    34 1   
    11     4     5 1   
    12     4    35 1   
    13     4    36 1   
    14     5    25 1   
    15     5    37 1   
    16     5    38 1   
    17     6    24 1   
    18     6    26 1   
    19     6    29 2   
    20     7     8 ar  
    21     7    12 ar  
    22     7    39 1   
    23     8     9 ar  
    24     8    50 1   
    25     9    10 ar  
    26     9    40 1   
    27    10    11 ar  
    28    11    12 ar  
    29    11    15 1   
    30    12    13 1   
    31    13    14 2   
    32    13    16 1   
    33    14    15 1   
    34    14    41 1   
    35    15    42 1   
    36    16    17 ar  
    37    16    21 ar  
    38    17    18 ar  
    39    18    19 ar  
    40    18    43 1   
    41    19    20 ar  
    42    19    49 1   
    43    20    21 ar  
    44    20    22 1   
    45    22    23 1   
    46    22    44 1   
    47    23    24 1   
    48    23    45 1   
    49    24    25 1   
    50    24    46 1   
    51    25    47 1   
    52    26    27 1   
    53    26    48 1   
    54    27    28 2   
    55    28    29 1   
@<TRIPOS>SUBSTRUCTURE
     1 4EW         1 TEMP              0 ****  ****    0 ROOT
