@<TRIPOS>MOLECULE
4EZ
   43    44     1     0     0
SMALL
bcc


@<TRIPOS>ATOM
      1 C1'          0.0000     0.0000     0.0000 c3         1 4EZ       0.378600
      2 N1'          1.4690     0.0000     0.0000 n3         1 4EZ      -0.530600
      3 C11          1.9950     0.0000     1.3710 c3         1 4EZ       0.156800
      4 C12          1.6310     1.3180     2.0580 c3         1 4EZ      -0.040400
      5 C13          2.1800     1.3190     3.4860 c3         1 4EZ      -0.027400
      6 C15          2.3640     2.6370     5.6000 c3         1 4EZ      -0.029400
      7 C16          2.0000     3.9550     6.2860 c3         1 4EZ       0.006900
      8 C10          1.9950    -1.1380    -0.7660 c3         1 4EZ       0.256000
      9 C9           1.6380    -0.9730    -2.2200 cc         1 4EZ      -0.252000
     10 C4           2.3220    -0.1260    -3.1920 ca         1 4EZ       0.425100
     11 N3           3.3720     0.6980    -3.1500 nb         1 4EZ      -0.564000
     12 C8           0.6280    -1.5830    -2.8700 cd         1 4EZ      -0.245100
     13 N7           0.6150    -1.1940    -4.1770 na         1 4EZ       0.392600
     14 C5           1.6350    -0.2990    -4.4070 ca         1 4EZ      -0.472800
     15 C6           2.0880     0.4080    -5.5270 ca         1 4EZ       0.530200
     16 N6           1.4550     0.2730    -6.7520 nv         1 4EZ      -0.657500
     17 N1           3.1360     1.2140    -5.3880 nb         1 4EZ      -0.631000
     18 C2           3.7580     1.3400    -4.2310 ca         1 4EZ       0.588900
     19 O1          -0.4760     0.5690    -1.2210 oh         1 4EZ      -0.579800
     20 C14          1.8150     2.6370     4.1720 c3         1 4EZ      -0.028400
     21 H1          -0.3610     0.5860     0.8360 h2         1 4EZ      -0.013800
     22 H2          -0.3610    -1.0170     0.0890 h2         1 4EZ      -0.013800
     23 H4           1.5630    -0.8260     1.9230 h1         1 4EZ       0.008700
     24 H5           3.0730    -0.1080     1.3440 h1         1 4EZ       0.008700
     25 H6           0.5540     1.4260     2.0850 hc         1 4EZ       0.025200
     26 H7           2.0620     2.1440     1.5050 hc         1 4EZ       0.025200
     27 H8           3.2580     1.2120     3.4590 hc         1 4EZ       0.013700
     28 H9           1.7490     0.4930     4.0390 hc         1 4EZ       0.013700
     29 H10          1.9990     1.8080     6.1940 hc         1 4EZ       0.012200
     30 H11          3.4400     2.5660     5.5020 hc         1 4EZ       0.012200
     31 H12          2.4310     4.7810     5.7340 hc         1 4EZ       0.000033
     32 H13          0.9220     4.0630     6.3140 hc         1 4EZ       0.000033
     33 H14          2.3890     3.9550     7.2970 hc         1 4EZ       0.000033
     34 H15          3.0730    -1.1760    -0.6620 h1         1 4EZ       0.009200
     35 H16          1.5630    -2.0570    -0.3900 h1         1 4EZ       0.009200
     36 H17         -0.0680    -2.2810    -2.4220 h4         1 4EZ       0.140000
     37 H18         -0.0400    -1.5090    -4.8650 hn         1 4EZ       0.113700
     38 H19          1.7690    -0.4200    -7.4030 hn         1 4EZ       0.275300
     39 H20          0.7100     0.8930    -7.0020 hn         1 4EZ       0.275300
     40 H21          4.6080     2.0090    -4.1650 h5         1 4EZ      -0.003900
     41 H22         -1.2980     1.0030    -1.0660 ho         1 4EZ       0.383000
     42 H23          2.2460     3.4630     3.6190 hc         1 4EZ       0.015200
     43 H24          0.7370     2.7430     4.1990 hc         1 4EZ       0.015200
@<TRIPOS>BOND
     1     1     2 1   
     2     1    19 1   
     3     1    21 1   
     4     1    22 1   
     5     2     3 1   
     6     2     8 1   
     7     3     4 1   
     8     3    23 1   
     9     3    24 1   
    10     4     5 1   
    11     4    25 1   
    12     4    26 1   
    13     5    20 1   
    14     5    27 1   
    15     5    28 1   
    16     6     7 1   
    17     6    20 1   
    18     6    29 1   
    19     6    30 1   
    20     7    31 1   
    21     7    32 1   
    22     7    33 1   
    23     8     9 1   
    24     8    34 1   
    25     8    35 1   
    26     9    10 1   
    27     9    12 2   
    28    10    11 ar  
    29    10    14 ar  
    30    11    18 ar  
    31    12    13 1   
    32    12    36 1   
    33    13    14 1   
    34    13    37 1   
    35    14    15 ar  
    36    15    16 1   
    37    15    17 ar  
    38    16    38 1   
    39    16    39 1   
    40    17    18 ar  
    41    18    40 1   
    42    19    41 1   
    43    20    42 1   
    44    20    43 1   
@<TRIPOS>SUBSTRUCTURE
     1 4EZ         1 TEMP              0 ****  ****    0 ROOT
