@<TRIPOS>MOLECULE
4F0
   39    41     1     0     0
SMALL
bcc


@<TRIPOS>ATOM
      1 C2           0.0000     0.0000     0.0000 ca         1 4F0       0.591900
      2 C4          -0.0930     0.0060     2.2980 ca         1 4F0       0.417100
      3 C5           1.3120     0.0010     2.3460 ca         1 4F0      -0.476800
      4 C6           2.0130     0.0000     1.1350 ca         1 4F0       0.533200
      5 CS5         -7.8400    -3.8780     3.1210 c3         1 4F0       0.118000
      6 S           -6.8840    -2.7210     4.1410 ss         1 4F0      -0.411200
      7 C5'         -5.2540    -3.5120     4.2380 c3         1 4F0       0.089700
      8 C4'         -4.3160    -2.6460     5.0800 c3         1 4F0      -0.047700
      9 C1'         -3.9760    -1.3430     4.3320 c3         1 4F0       0.143800
     10 N1'         -2.5160    -1.3450     4.0980 n3         1 4F0      -0.531600
     11 C9          -0.5420     0.0110     3.6860 cc         1 4F0      -0.261000
     12 C8           0.5620     0.0090     4.4580 cd         1 4F0      -0.263100
     13 N7           1.6760     0.0010     3.6720 na         1 4F0       0.393600
     14 N6           3.3980    -0.0050     1.1190 nv         1 4F0      -0.657500
     15 N1           1.3200     0.0000     0.0000 nb         1 4F0      -0.627000
     16 N3          -0.7050     0.0050     1.1110 nb         1 4F0      -0.561000
     17 C2'         -1.9370    -2.2040     5.1620 c3         1 4F0       0.115800
     18 C3'         -2.9600    -3.3620     5.2800 c3         1 4F0       0.185100
     19 O3'         -2.8930    -3.9660     6.5730 oh         1 4F0      -0.579800
     20 H1          -0.5220    -0.0000    -0.9490 h5         1 4F0      -0.001900
     21 H2          -7.4160    -3.9150     2.1250 h1         1 4F0       0.030367
     22 H3          -8.8680    -3.5430     3.0630 h1         1 4F0       0.030367
     23 H4          -7.8050    -4.8650     3.5660 h1         1 4F0       0.030367
     24 H5          -5.3540    -4.4890     4.6970 h1         1 4F0       0.038200
     25 H6          -4.8470    -3.6220     3.2400 h1         1 4F0       0.038200
     26 H7          -4.7650    -2.4200     6.0400 hc         1 4F0       0.059700
     27 H8          -4.5000    -1.3160     3.3840 h1         1 4F0       0.028700
     28 H9          -4.2520    -0.4890     4.9370 h1         1 4F0       0.028700
     29 H11         -2.0050     0.3690     5.1910 h1         1 4F0       0.015200
     30 H12         -2.5600     0.6750     3.5400 h1         1 4F0       0.015200
     31 H13          0.5640     0.0140     5.5410 h4         1 4F0       0.145000
     32 H14          2.6180    -0.0020     4.0100 hn         1 4F0       0.116700
     33 H15          3.8940    -0.8740     1.0950 hn         1 4F0       0.276800
     34 H16          3.9010     0.8590     1.0950 hn         1 4F0       0.276800
     35 H17         -1.8690    -1.6590     6.0960 h1         1 4F0       0.021200
     36 H18         -0.9670    -2.5820     4.8610 h1         1 4F0       0.021200
     37 H19         -2.7980    -4.0940     4.4990 h1         1 4F0       0.016700
     38 H20         -2.4010    -4.7690     6.5200 ho         1 4F0       0.389000
     39 C10         -1.9700     0.0170     4.1670 c3         1 4F0       0.252000
@<TRIPOS>BOND
     1     1    15 ar  
     2     1    16 ar  
     3     1    20 1   
     4     2     3 ar  
     5     2    11 1   
     6     2    16 ar  
     7     3     4 ar  
     8     3    13 1   
     9     4    14 1   
    10     4    15 ar  
    11     5     6 1   
    12     5    21 1   
    13     5    22 1   
    14     5    23 1   
    15     6     7 1   
    16     7     8 1   
    17     7    24 1   
    18     7    25 1   
    19     8     9 1   
    20     8    18 1   
    21     8    26 1   
    22     9    10 1   
    23     9    27 1   
    24     9    28 1   
    25    10    17 1   
    26    10    39 1   
    27    11    12 2   
    28    11    39 1   
    29    12    13 1   
    30    12    31 1   
    31    13    32 1   
    32    14    33 1   
    33    14    34 1   
    34    17    18 1   
    35    17    35 1   
    36    17    36 1   
    37    18    19 1   
    38    18    37 1   
    39    19    38 1   
    40    29    39 1   
    41    30    39 1   
@<TRIPOS>SUBSTRUCTURE
     1 4F0         1 TEMP              0 ****  ****    0 ROOT
