@<TRIPOS>MOLECULE
molecule
   39    41     1     0     0
SMALL
bcc


@<TRIPOS>ATOM
      1 C2           0.0000     0.0000     0.0000 ca         1 4F0       0.658900
      2 C4          -0.0930     0.0060     2.2980 ca         1 4F0       0.469100
      3 C5           1.3120     0.0010     2.3460 ca         1 4F0      -0.296800
      4 C6           2.0130     0.0000     1.1350 ca         1 4F0       0.705200
      5 CS5         -7.8400    -3.8780     3.1210 c3         1 4F0       0.004000
      6 S           -6.8840    -2.7210     4.1410 ss         1 4F0      -0.360200
      7 C5'         -5.2540    -3.5120     4.2380 c3         1 4F0       0.023700
      8 C4'         -4.3160    -2.6460     5.0800 c3         1 4F0      -0.067700
      9 C1'         -3.9760    -1.3430     4.3320 c3         1 4F0       0.147800
     10 N1'         -2.5160    -1.3450     4.0980 n3         1 4F0      -0.693600
     11 C9          -0.5420     0.0110     3.6860 cc         1 4F0      -0.261000
     12 C8           0.5620     0.0090     4.4580 cd         1 4F0      -0.085100
     13 N7           1.6760     0.0010     3.6720 na         1 4F0      -0.162400
     14 N6           3.3980    -0.0050     1.1190 nv         1 4F0      -1.084500
     15 N1           1.3200     0.0000     0.0000 nb         1 4F0      -0.747000
     16 N3          -0.7050     0.0050     1.1110 nb         1 4F0      -0.695000
     17 C2'         -1.9370    -2.2040     5.1620 c3         1 4F0       0.120800
     18 C3'         -2.9600    -3.3620     5.2800 c3         1 4F0       0.143100
     19 O3'         -2.8930    -3.9660     6.5730 oh         1 4F0      -0.601800
     20 H1          -0.5220    -0.0000    -0.9490 h5         1 4F0       0.059100
     21 H2          -7.4160    -3.9150     2.1250 h1         1 4F0       0.059033
     22 H3          -8.8680    -3.5430     3.0630 h1         1 4F0       0.059033
     23 H4          -7.8050    -4.8650     3.5660 h1         1 4F0       0.059033
     24 H5          -5.3540    -4.4890     4.6970 h1         1 4F0       0.061700
     25 H6          -4.8470    -3.6220     3.2400 h1         1 4F0       0.061700
     26 H7          -4.7650    -2.4200     6.0400 hc         1 4F0       0.084700
     27 H8          -4.5000    -1.3160     3.3840 h1         1 4F0       0.055200
     28 H9          -4.2520    -0.4890     4.9370 h1         1 4F0       0.055200
     29 H11         -2.0050     0.3690     5.1910 h1         1 4F0       0.046200
     30 H12         -2.5600     0.6750     3.5400 h1         1 4F0       0.046200
     31 H13          0.5640     0.0140     5.5410 h4         1 4F0       0.172000
     32 H14          2.6180    -0.0020     4.0100 hn         1 4F0       0.302700
     33 H15          3.8940    -0.8740     1.0950 hn         1 4F0       0.436800
     34 H16          3.9010     0.8590     1.0950 hn         1 4F0       0.436800
     35 H17         -1.8690    -1.6590     6.0960 h1         1 4F0       0.048700
     36 H18         -0.9670    -2.5820     4.8610 h1         1 4F0       0.048700
     37 H19         -2.7980    -4.0940     4.4990 h1         1 4F0       0.050700
     38 H20         -2.4010    -4.7690     6.5200 ho         1 4F0       0.403000
     39 C10         -1.9700     0.0170     4.1670 c3         1 4F0       0.236000
@<TRIPOS>BOND
     1     5     6 1   
     2     6     7 1   
     3     7     8 1   
     4     9     8 1   
     5     9    10 1   
     6     8    18 1   
     7    10    17 1   
     8    10    39 1   
     9    17    18 1   
    10    18    19 1   
    11    12    13 1   
    12    12    11 2   
    13    13     3 1   
    14    11    39 1   
    15    11     2 1   
    16     3     4 ar  
    17     3     2 ar  
    18    14     4 1   
    19     4    15 ar  
    20     2    16 ar  
    21    15     1 ar  
    22    16     1 ar  
    23     1    20 1   
    24     5    21 1   
    25     5    22 1   
    26     5    23 1   
    27     7    24 1   
    28     7    25 1   
    29     8    26 1   
    30     9    27 1   
    31     9    28 1   
    32    39    29 1   
    33    39    30 1   
    34    12    31 1   
    35    13    32 1   
    36    14    33 1   
    37    14    34 1   
    38    17    35 1   
    39    17    36 1   
    40    18    37 1   
    41    19    38 1   
@<TRIPOS>SUBSTRUCTURE
     1 4F0         1 TEMP              0 ****  ****    0 ROOT
