@<TRIPOS>MOLECULE
molecule
   42    45     1     0     0
SMALL
bcc


@<TRIPOS>ATOM
      1 N1           0.0000     0.0000     0.0000 n          1 4F1      -0.101000
      2 C4           5.5380    -0.6930     1.2670 ca         1 4F1      -0.110500
      3 C5           4.2160    -0.6930     0.8860 ca         1 4F1      -0.124000
      4 C6           3.2700     0.0010     1.6420 ca         1 4F1      -0.158900
      5 C7           1.8470     0.0000     1.2310 cc         1 4F1       0.501500
      6 C8          -0.7810     0.0000    -1.0980 c          1 4F1       0.706700
      7 C10          0.1330     1.3600    -2.9740 ca         1 4F1       0.059400
      8 C13          0.6750    -0.9410    -4.4270 ca         1 4F1      -0.089000
      9 C17         -1.7170     0.0140     1.8790 ca         1 4F1      -0.133000
     10 C20          0.5330     0.0070     3.5160 ca         1 4F1      -0.056000
     11 C21          0.6840     0.0040     2.1290 ca         1 4F1      -0.219900
     12 O2          -1.9890    -0.0860    -0.9850 o          1 4F1      -0.555100
     13 C9          -0.1710     0.1060    -2.4380 ca         1 4F1      -0.058600
     14 C14          0.1060    -1.0470    -3.1760 ca         1 4F1      -0.133300
     15 F2           0.1470    -3.3940    -3.5240 f          1 4F1      -0.214967
     16 F1           0.4880    -2.5900    -1.4130 f          1 4F1      -0.214967
     17 F           -1.5930    -2.4880    -2.3530 f          1 4F1      -0.214967
     18 C12          0.9700     0.3040    -4.9550 ca         1 4F1      -0.115000
     19 C11          0.7000     1.4500    -4.2310 ca         1 4F1      -0.100000
     20 N            1.3980     0.0000     0.0000 nd         1 4F1      -0.474300
     21 C16         -0.4530     0.0060     1.3020 ca         1 4F1       0.021600
     22 C19         -0.7180     0.0180     4.0630 ca         1 4F1      -0.164000
     23 C18         -1.8440     0.0190     3.2510 ca         1 4F1      -0.103000
     24 C3           3.6640     0.6940     2.7890 ca         1 4F1      -0.124000
     25 C2           4.9850     0.6950     3.1720 ca         1 4F1      -0.110500
     26 C1           5.9320    -0.0040     2.4170 ca         1 4F1      -0.075600
     27 C            7.3490    -0.0040     2.8280 c          1 4F1       0.877200
     28 O            7.7290     0.6620     3.9360 o          1 4F1      -0.830800
     29 O1           8.1730    -0.6030     2.1660 o          1 4F1      -0.830800
     30 H1           6.2710    -1.2330     0.6810 ha         1 4F1       0.156500
     31 H2           3.9090    -1.2280    -0.0060 ha         1 4F1       0.118000
     32 H3           0.8900    -1.8350    -5.0000 ha         1 4F1       0.153000
     33 H4          -2.6010     0.0150     1.2520 ha         1 4F1       0.155000
     34 H5           1.4060     0.0060     4.1570 ha         1 4F1       0.149000
     35 H6           1.4150     0.3810    -5.9390 ha         1 4F1       0.142000
     36 H7           0.9350     2.4210    -4.6500 ha         1 4F1       0.150000
     37 H8          -0.8340     0.0230     5.1410 ha         1 4F1       0.128000
     38 H9          -2.8300     0.0280     3.7000 ha         1 4F1       0.127000
     39 H10          2.9290     1.2330     3.3740 ha         1 4F1       0.118000
     40 H11          5.2910     1.2310     4.0630 ha         1 4F1       0.156500
     41 C15         -0.2190    -2.4040    -2.6060 c3         1 4F1       0.669200
     42 Cl          -0.2050     2.8010    -2.0660 cl         1 4F1      -0.077400
@<TRIPOS>BOND
     1    29    27 1
     2    28    27 1
     3    27    26 1
     4    26     2 ar
     5    26    25 ar
     6     2     3 ar
     7    25    24 ar
     8     3     4 ar
     9    24     4 ar
    10     4     5 1
    11    18    19 ar
    12    18     8 ar
    13    19     7 ar
    14     5    20 2
    15     5    11 1
    16     8    14 ar
    17    20     1 1
    18    17    41 1
    19     7    42 1
    20     7    13 ar
    21    14    13 ar
    22    14    41 1
    23    13     6 1
    24    11    10 ar
    25    11    21 ar
    26    41    15 1
    27    41    16 1
    28     1     6 1
    29     1    21 1
    30    10    22 ar
    31     6    12 2
    32    21     9 ar
    33    22    23 ar
    34     9    23 ar
    35     2    30 1
    36     3    31 1
    37     8    32 1
    38     9    33 1
    39    10    34 1
    40    18    35 1
    41    19    36 1
    42    22    37 1
    43    23    38 1
    44    24    39 1
    45    25    40 1
@<TRIPOS>SUBSTRUCTURE
     1 4F1         1 TEMP              0 ****  ****    0 ROOT
