@<TRIPOS>MOLECULE
molecule
   62    65     1     0     0
SMALL
bcc


@<TRIPOS>ATOM
      1 C10          0.0000     0.0000     0.0000 c3         1 4F2      -0.093400
      2 C11          1.5300     0.0000     0.0000 c3         1 4F2       0.262500
      3 C12          2.0400     0.0000     1.4420 c3         1 4F2      -0.093400
      4 C13          1.5310    -1.2500     2.1620 c3         1 4F2      -0.092400
      5 C18          5.7040     1.2190    -2.3870 ca         1 4F2      -0.441400
      6 C19          7.0170     1.1990    -3.0230 cc         1 4F2      -0.013200
      7 C20          7.4380     2.3200    -3.6660 cd         1 4F2      -0.261200
      8 C21          6.6150     3.4620    -3.7100 c          1 4F2       0.702700
      9 C24          4.5900     4.7030    -3.2030 c3         1 4F2       0.099700
     10 C25          4.4840     5.1750    -4.6640 c3         1 4F2      -0.088900
     11 C26          5.1020     6.5880    -4.7160 c3         1 4F2      -0.081400
     12 C28          5.2680     5.8440    -2.4180 c3         1 4F2      -0.088900
     13 C29          4.9190     2.3910    -2.4610 ca         1 4F2       0.647200
     14 C15          3.2850     1.3220    -1.2450 ca         1 4F2       0.981900
     15 C01         -4.5320    -3.9200     3.6070 c3         1 4F2      -0.109100
     16 C02         -3.4910    -3.5480     4.6650 c3         1 4F2       0.128700
     17 C03         -3.5310    -4.5710     5.8020 c3         1 4F2      -0.109100
     18 N04         -2.1580    -3.5460     4.0580 ns         1 4F2      -0.602900
     19 O06         -2.4130    -1.4560     3.3480 o          1 4F2      -0.663100
     20 N07         -0.4870    -2.4470     2.8530 ns         1 4F2      -0.602900
     21 C08          0.0010    -1.2490     2.1630 c3         1 4F2       0.131700
     22 C09         -0.5090    -1.2490     0.7210 c3         1 4F2      -0.092400
     23 N14          2.0180     1.1970    -0.6910 nu         1 4F2      -0.885900
     24 N16          3.9920     0.2000    -1.1630 nb         1 4F2      -0.827000
     25 C17          5.1920     0.1070    -1.7090 ca         1 4F2       0.546200
     26 O22          7.0120     4.4570    -4.2930 o          1 4F2      -0.633500
     27 N23          5.4030     3.4870    -3.1260 n          1 4F2      -0.402300
     28 C27          6.0560     6.6300    -3.4960 c3         1 4F2      -0.081400
     29 N30          3.7260     2.3970    -1.8800 nb         1 4F2      -0.842000
     30 H101        -0.3600    -0.0020    -1.0220 hc         1 4F2       0.054450
     31 H102        -0.3600     0.8840     0.5130 hc         1 4F2       0.054450
     32 H111         1.8890    -0.8870    -0.5080 h1         1 4F2       0.080700
     33 H121         3.1230    -0.0020     1.4410 hc         1 4F2       0.054450
     34 H122         1.6760     0.8830     1.9530 hc         1 4F2       0.054450
     35 H131         1.8900    -2.1330     1.6480 hc         1 4F2       0.052950
     36 H132         1.8910    -1.2480     3.1840 hc         1 4F2       0.052950
     37 H191         7.6410     0.3150    -2.9820 ha         1 4F2       0.139000
     38 H201         8.4080     2.3340    -4.1470 ha         1 4F2       0.165000
     39 H241         3.6000     4.5190    -2.8030 h1         1 4F2       0.091700
     40 H252         3.4440     5.2150    -4.9660 hc         1 4F2       0.050950
     41 H251         5.0380     4.5050    -5.3100 hc         1 4F2       0.050950
     42 H262         4.3300     7.3420    -4.6180 hc         1 4F2       0.053450
     43 H261         5.6590     6.7240    -5.6350 hc         1 4F2       0.053450
     44 H281         5.9450     5.4410    -1.6750 hc         1 4F2       0.050950
     45 H282         4.5220     6.4800    -1.9570 hc         1 4F2       0.050950
     46 H013        -5.4710    -4.1590     4.0930 hc         1 4F2       0.041867
     47 H012        -4.6770    -3.0850     2.9330 hc         1 4F2       0.041867
     48 H011        -4.1860    -4.7810     3.0470 hc         1 4F2       0.041867
     49 H021        -3.6980    -2.5610     5.0600 h1         1 4F2       0.080700
     50 H033        -2.7400    -4.3550     6.5100 hc         1 4F2       0.041867
     51 H031        -4.4900    -4.5150     6.3040 hc         1 4F2       0.041867
     52 H032        -3.3930    -5.5660     5.3980 hc         1 4F2       0.041867
     53 H041        -1.5780    -4.3590     4.1210 hn         1 4F2       0.304500
     54 H071         0.1010    -3.2520     2.9340 hn         1 4F2       0.305500
     55 H081        -0.3580    -0.3620     2.6710 h1         1 4F2       0.082700
     56 H091        -1.5930    -1.2470     0.7220 hc         1 4F2       0.052950
     57 H092        -0.1450    -2.1330     0.2110 hc         1 4F2       0.052950
     58 H141         1.4320     2.0050    -0.7670 hn         1 4F2       0.443800
     59 H171         5.7640    -0.8100    -1.6380 h4         1 4F2       0.032100
     60 H271         6.2230     7.6520    -3.1770 hc         1 4F2       0.053450
     61 H272         6.9910     6.1330    -3.7240 hc         1 4F2       0.053450
     62 C05         -1.7090    -2.4450     3.4220 c          1 4F2       0.782100
@<TRIPOS>BOND
     1     6     7 2   
     2     6     5 1   
     3     7     8 1   
     4    25     5 ar  
     5    25    24 ar  
     6     5    13 ar  
     7    24    14 ar  
     8     8    26 2   
     9     8    27 1   
    10    13    27 1   
    11    13    29 ar  
    12    27     9 1   
    13    14    29 ar  
    14    14    23 1   
    15    12     9 1   
    16    12    28 1   
    17    23     2 1   
    18     3     2 1   
    19     3     4 1   
    20     9    10 1   
    21     2     1 1   
    22     4    21 1   
    23    28    11 1   
    24    10    11 1   
    25    15    16 1   
    26     1    22 1   
    27    21    22 1   
    28    21    20 1   
    29    17    16 1   
    30    18    16 1   
    31    18    62 1   
    32    20    62 1   
    33    62    19 2   
    34     1    30 1   
    35     1    31 1   
    36     2    32 1   
    37     3    33 1   
    38     3    34 1   
    39     4    35 1   
    40     4    36 1   
    41     6    37 1   
    42     7    38 1   
    43     9    39 1   
    44    10    40 1   
    45    10    41 1   
    46    11    42 1   
    47    11    43 1   
    48    12    44 1   
    49    12    45 1   
    50    15    46 1   
    51    15    47 1   
    52    15    48 1   
    53    16    49 1   
    54    17    50 1   
    55    17    51 1   
    56    17    52 1   
    57    18    53 1   
    58    20    54 1   
    59    21    55 1   
    60    22    56 1   
    61    22    57 1   
    62    23    58 1   
    63    25    59 1   
    64    28    60 1   
    65    28    61 1   
@<TRIPOS>SUBSTRUCTURE
     1 4F2         1 TEMP              0 ****  ****    0 ROOT
