@<TRIPOS>MOLECULE
4F2
   62    65     1     0     0
SMALL
bcc


@<TRIPOS>ATOM
      1 C10          0.0000     0.0000     0.0000 c3         1 4F2      -0.033900
      2 C11          1.5300     0.0000     0.0000 c3         1 4F2       0.144500
      3 C12          2.0400     0.0000     1.4420 c3         1 4F2      -0.033900
      4 C13          1.5310    -1.2500     2.1620 c3         1 4F2      -0.035400
      5 C18          5.7040     1.2190    -2.3870 ca         1 4F2      -0.448400
      6 C19          7.0170     1.1990    -3.0230 cc         1 4F2       0.028800
      7 C20          7.4380     2.3200    -3.6660 cd         1 4F2      -0.246200
      8 C21          6.6150     3.4620    -3.7100 c          1 4F2       0.608700
      9 C24          4.5900     4.7030    -3.2030 c3         1 4F2      -0.011300
     10 C25          4.4840     5.1750    -4.6640 c3         1 4F2      -0.031400
     11 C26          5.1020     6.5880    -4.7160 c3         1 4F2      -0.034400
     12 C28          5.2680     5.8440    -2.4180 c3         1 4F2      -0.031400
     13 C29          4.9190     2.3910    -2.4610 ca         1 4F2       0.457200
     14 C15          3.2850     1.3220    -1.2450 ca         1 4F2       0.761900
     15 C01         -4.5320    -3.9200     3.6070 c3         1 4F2      -0.013100
     16 C02         -3.4910    -3.5480     4.6650 c3         1 4F2       0.031700
     17 C03         -3.5310    -4.5710     5.8020 c3         1 4F2      -0.013100
     18 N04         -2.1580    -3.5460     4.0580 ns         1 4F2      -0.218900
     19 O06         -2.4130    -1.4560     3.3480 o          1 4F2      -0.708100
     20 N07         -0.4870    -2.4470     2.8530 ns         1 4F2      -0.216900
     21 C08          0.0010    -1.2490     2.1630 c3         1 4F2       0.031700
     22 C09         -0.5090    -1.2490     0.7210 c3         1 4F2      -0.035400
     23 N14          2.0180     1.1970    -0.6910 nu         1 4F2      -0.464900
     24 N16          3.9920     0.2000    -1.1630 nb         1 4F2      -0.742000
     25 C17          5.1920     0.1070    -1.7090 ca         1 4F2       0.552200
     26 O22          7.0120     4.4570    -4.2930 o          1 4F2      -0.675500
     27 N23          5.4030     3.4870    -3.1260 n          1 4F2       0.018700
     28 C27          6.0560     6.6300    -3.4960 c3         1 4F2      -0.034400
     29 N30          3.7260     2.3970    -1.8800 nb         1 4F2      -0.729000
     30 H101        -0.3600    -0.0020    -1.0220 hc         1 4F2       0.024700
     31 H102        -0.3600     0.8840     0.5130 hc         1 4F2       0.024700
     32 H111         1.8890    -0.8870    -0.5080 h1         1 4F2       0.056700
     33 H121         3.1230    -0.0020     1.4410 hc         1 4F2       0.024700
     34 H122         1.6760     0.8830     1.9530 hc         1 4F2       0.024700
     35 H131         1.8900    -2.1330     1.6480 hc         1 4F2       0.023700
     36 H132         1.8910    -1.2480     3.1840 hc         1 4F2       0.023700
     37 H191         7.6410     0.3150    -2.9820 ha         1 4F2       0.107000
     38 H201         8.4080     2.3340    -4.1470 ha         1 4F2       0.137000
     39 H241         3.6000     4.5190    -2.8030 h1         1 4F2       0.065700
     40 H252         3.4440     5.2150    -4.9660 hc         1 4F2       0.021450
     41 H251         5.0380     4.5050    -5.3100 hc         1 4F2       0.021450
     42 H262         4.3300     7.3420    -4.6180 hc         1 4F2       0.028450
     43 H261         5.6590     6.7240    -5.6350 hc         1 4F2       0.028450
     44 H281         5.9450     5.4410    -1.6750 hc         1 4F2       0.021450
     45 H282         4.5220     6.4800    -1.9570 hc         1 4F2       0.021450
     46 H013        -5.4710    -4.1590     4.0930 hc         1 4F2       0.009533
     47 H012        -4.6770    -3.0850     2.9330 hc         1 4F2       0.009533
     48 H011        -4.1860    -4.7810     3.0470 hc         1 4F2       0.009533
     49 H021        -3.6980    -2.5610     5.0600 h1         1 4F2       0.056700
     50 H033        -2.7400    -4.3550     6.5100 hc         1 4F2       0.009533
     51 H031        -4.4900    -4.5150     6.3040 hc         1 4F2       0.009533
     52 H032        -3.3930    -5.5660     5.3980 hc         1 4F2       0.009533
     53 H041        -1.5780    -4.3590     4.1210 hn         1 4F2       0.165500
     54 H071         0.1010    -3.2520     2.9340 hn         1 4F2       0.166500
     55 H081        -0.3580    -0.3620     2.6710 h1         1 4F2       0.060700
     56 H091        -1.5930    -1.2470     0.7220 hc         1 4F2       0.023700
     57 H092        -0.1450    -2.1330     0.2110 hc         1 4F2       0.023700
     58 H141         1.4320     2.0050    -0.7670 hn         1 4F2       0.288800
     59 H171         5.7640    -0.8100    -1.6380 h4         1 4F2      -0.017900
     60 H271         6.2230     7.6520    -3.1770 hc         1 4F2       0.028450
     61 H272         6.9910     6.1330    -3.7240 hc         1 4F2       0.028450
     62 C05         -1.7090    -2.4450     3.4220 c          1 4F2       0.582100
@<TRIPOS>BOND
     1     1     2 1   
     2     1    22 1   
     3     1    30 1   
     4     1    31 1   
     5     2     3 1   
     6     2    23 1   
     7     2    32 1   
     8     3     4 1   
     9     3    33 1   
    10     3    34 1   
    11     4    21 1   
    12     4    35 1   
    13     4    36 1   
    14     5     6 1   
    15     5    13 ar  
    16     5    25 ar  
    17     6     7 2   
    18     6    37 1   
    19     7     8 1   
    20     7    38 1   
    21     8    26 2   
    22     8    27 1   
    23     9    10 1   
    24     9    12 1   
    25     9    27 1   
    26     9    39 1   
    27    10    11 1   
    28    10    40 1   
    29    10    41 1   
    30    11    28 1   
    31    11    42 1   
    32    11    43 1   
    33    12    28 1   
    34    12    44 1   
    35    12    45 1   
    36    13    27 1   
    37    13    29 ar  
    38    14    23 1   
    39    14    24 ar  
    40    14    29 ar  
    41    15    16 1   
    42    15    46 1   
    43    15    47 1   
    44    15    48 1   
    45    16    17 1   
    46    16    18 1   
    47    16    49 1   
    48    17    50 1   
    49    17    51 1   
    50    17    52 1   
    51    18    53 1   
    52    18    62 1   
    53    19    62 2   
    54    20    21 1   
    55    20    54 1   
    56    20    62 1   
    57    21    22 1   
    58    21    55 1   
    59    22    56 1   
    60    22    57 1   
    61    23    58 1   
    62    24    25 ar  
    63    25    59 1   
    64    28    60 1   
    65    28    61 1   
@<TRIPOS>SUBSTRUCTURE
     1 4F2         1 TEMP              0 ****  ****    0 ROOT
