@<TRIPOS>MOLECULE
4F4
   52    56     1     0     0
SMALL
bcc


@<TRIPOS>ATOM
      1 C10        -0.1960   -0.2120    0.1140 ca        1 4F4      0.014600
      2 O01         1.1210   -0.2110   -2.3270 o         1 4F4     -0.565100
      3 C02        -0.1200   -0.1540   -2.3310 c         1 4F4      0.639100
      4 N03        -0.8610   -0.2010   -1.1460 n         1 4F4     -0.381000
      5 C04        -2.2760    0.1060   -1.1390 c3        1 4F4      0.160300
      6 C05        -2.6360    1.5340   -1.3660 cc        1 4F4     -0.159300
      7 C06        -3.5830    1.9740   -2.2720 cd        1 4F4     -0.179100
      8 S07        -3.7720    3.6260   -2.2070 ss        1 4F4      0.054200
      9 C08        -2.6270    3.8280   -1.0080 cd        1 4F4     -0.171100
     10 C09        -2.0740    2.6260   -0.6260 cc        1 4F4     -0.135000
     11 C11         0.9090    0.6210    0.3780 ca        1 4F4     -0.106500
     12 C12         1.5430    0.5890    1.6110 ca        1 4F4     -0.159500
     13 C13         1.0950   -0.2760    2.6380 ca        1 4F4      0.067600
     14 N14         1.7850   -0.2800    3.8610 n         1 4F4     -0.472100
     15 C15         1.3560   -0.8420    5.0600 c         1 4F4      0.718700
     16 C16         2.2720   -0.6940    6.2040 cc        1 4F4     -0.204700
     17 C17         1.8780   -0.9550    7.5080 cd        1 4F4     -0.077000
     18 C18         2.9450   -0.7480    8.4310 cd        1 4F4     -0.169000
     19 C19         4.0990   -0.3460    7.7890 cc        1 4F4     -0.146100
     20 S20         3.8880   -0.2290    6.1430 ss        1 4F4      0.042200
     21 O21         0.2680   -1.4370    5.1760 o         1 4F4     -0.582100
     22 C22        -0.0070   -1.1140    2.3700 ca        1 4F4     -0.159500
     23 C23        -0.6340   -1.0840    1.1310 ca        1 4F4     -0.106500
     24 C24        -0.9230   -0.1070   -3.6440 c3        1 4F4     -0.012700
     25 N25        -0.1330    0.0310   -4.8400 na        1 4F4      0.052900
     26 C26         0.4680   -1.0500   -5.5350 ca        1 4F4     -0.060200
     27 C27         0.2460   -2.4260   -5.5980 ca        1 4F4     -0.127000
     28 C28         1.0320   -3.1510   -6.4890 ca        1 4F4     -0.095000
     29 C29         2.0000   -2.5370   -7.3000 ca        1 4F4     -0.156000
     30 C30         2.2320   -1.1660   -7.2570 ca        1 4F4     -0.044000
     31 C31         1.4670   -0.4120   -6.3680 ca        1 4F4      0.014400
     32 N32         1.4100    0.9860   -6.0570 nc        1 4F4     -0.199400
     33 N33         0.5380    1.1820   -5.1770 nd        1 4F4     -0.121400
     34 H1         -2.6970   -0.2010   -0.1350 h1        1 4F4      0.062200
     35 H2         -2.7800   -0.5320   -1.9240 h1        1 4F4      0.062200
     36 H3         -4.1530    1.3380   -2.9480 h4        1 4F4      0.170000
     37 H4         -2.3660    4.8020   -0.5970 h4        1 4F4      0.175000
     38 H5         -1.3010    2.4910    0.1350 ha        1 4F4      0.165000
     39 H6          1.2990    1.2880   -0.4100 ha        1 4F4      0.147500
     40 H7          2.4090    1.2500    1.7740 ha        1 4F4      0.153500
     41 H8          2.6220    0.2600    3.8780 hn        1 4F4      0.315500
     42 H9          0.8720   -1.2830    7.7910 ha        1 4F4      0.177000
     43 H10         2.8420   -0.8970    9.5080 ha        1 4F4      0.162000
     44 H11         5.0490   -0.1290    8.2770 h4        1 4F4      0.177000
     45 H12        -0.3860   -1.8060    3.1410 ha        1 4F4      0.153500
     46 H13        -1.4840   -1.7630    0.9560 ha        1 4F4      0.147500
     47 H14        -1.6410    0.7660   -3.5970 h1        1 4F4      0.093700
     48 H15        -1.5050   -1.0690   -3.7370 h1        1 4F4      0.093700
     49 H16        -0.5070   -2.9180   -4.9690 ha        1 4F4      0.140000
     50 H17         0.8910   -4.2410   -6.5590 ha        1 4F4      0.136000
     51 H18         2.5930   -3.1620   -7.9850 ha        1 4F4      0.138000
     52 H19         2.9880   -0.6890   -7.8970 ha        1 4F4      0.153000
@<TRIPOS>BOND
     1    1    4 1
     2    1   11 ar
     3    1   23 ar
     4    2    3 2
     5    3    4 1
     6    3   24 1
     7    4    5 1
     8    5    6 1
     9    5   34 1
    10    5   35 1
    11    6    7 2
    12    6   10 1
    13    7    8 1
    14    7   36 1
    15    8    9 1
    16    9   10 2
    17    9   37 1
    18   10   38 1
    19   11   12 ar
    20   11   39 1
    21   12   13 ar
    22   12   40 1
    23   13   14 1
    24   13   22 ar
    25   14   15 1
    26   14   41 1
    27   15   16 1
    28   15   21 2
    29   16   17 2
    30   16   20 1
    31   17   18 1
    32   17   42 1
    33   18   19 2
    34   18   43 1
    35   19   20 1
    36   19   44 1
    37   22   23 ar
    38   22   45 1
    39   23   46 1
    40   24   25 1
    41   24   47 1
    42   24   48 1
    43   25   26 1
    44   25   33 1
    45   26   27 ar
    46   26   31 ar
    47   27   28 ar
    48   27   49 1
    49   28   29 ar
    50   28   50 1
    51   29   30 ar
    52   29   51 1
    53   30   31 ar
    54   30   52 1
    55   31   32 1
    56   32   33 2
@<TRIPOS>SUBSTRUCTURE
     1 4F4         1 TEMP              0 ****  ****    0 ROOT
