@<TRIPOS>MOLECULE
4F5
   64    67     1     0     0
SMALL
bcc


@<TRIPOS>ATOM
      1 C10          0.0000     0.0000     0.0000 c3         1 4F5      -0.069100
      2 C12          4.2220    -0.8620    -0.2070 ca         1 4F5      -0.114000
      3 C13          5.5990    -0.9640    -0.2130 ca         1 4F5      -0.070000
      4 C14          8.5220     0.2180    -0.1180 c3         1 4F5       0.024000
      5 C15          9.4010     1.2940    -0.6990 c          1 4F5       0.550100
      6 C17         11.3370     2.7690    -0.5820 c3         1 4F5       0.007400
      7 O01          7.7190    -1.5030    -3.1140 o          1 4F5      -0.607100
      8 C02          8.3590    -1.0730    -2.1780 c          1 4F5       0.566100
      9 C04          6.3400    -0.3000    -1.1810 ca         1 4F5      -0.095400
     10 C05          5.6960     0.4660    -2.1450 ca         1 4F5      -0.070000
     11 C06          4.3190     0.5670    -2.1380 ca         1 4F5      -0.114000
     12 C07          3.5780    -0.0970    -1.1700 ca         1 4F5      -0.077400
     13 N08          2.1810     0.0010    -1.1680 ns         1 4F5      -0.041100
     14 C09          1.5060     0.0000     0.0000 c          1 4F5       0.558100
     15 O11          2.1130     0.0000     1.0500 o          1 4F5      -0.631100
     16 N16         10.4820     1.7220    -0.0170 ns         1 4F5      -0.175900
     17 C18         12.4840     3.0680     0.3860 c3         1 4F5      -0.018767
     18 C19         11.9090     2.2930    -1.9190 c3         1 4F5      -0.018767
     19 C20         10.5120     4.0380    -0.8040 c3         1 4F5      -0.018767
     20 O21          9.1370     1.7740    -1.7810 o          1 4F5      -0.632100
     21 C22          7.5910     0.8250     0.9010 cc         1 4F5      -0.160300
     22 C23          6.6230     1.6800     0.5670 cd         1 4F5       0.039900
     23 S24          5.7480     2.1720     2.0120 ss         1 4F5      -0.240800
     24 C25          6.7780     1.1590     3.0160 cd         1 4F5       0.013900
     25 C26          7.6720     0.5330     2.2510 cc         1 4F5      -0.131000
     26 C27          9.8490    -1.2860    -2.1230 c3         1 4F5      -0.089700
     27 N28         10.2800    -2.0350    -3.3070 na         1 4F5       0.485900
     28 C29         10.3610    -3.4010    -3.4310 ca         1 4F5      -0.211200
     29 C30         10.0980    -4.4660    -2.5760 ca         1 4F5      -0.105000
     30 C31         10.2840    -5.7570    -3.0180 ca         1 4F5      -0.059000
     31 C32         10.7310    -6.0010    -4.3100 ca         1 4F5      -0.135000
     32 C33         10.9950    -4.9700    -5.1630 ca         1 4F5      -0.009000
     33 C34         10.8130    -3.6480    -4.7390 ca         1 4F5      -0.007600
     34 N35         10.9870    -2.4550    -5.3430 nc         1 4F5      -0.133400
     35 N36         10.6850    -1.4980    -4.5380 nd         1 4F5      -0.307400
     36 H1          -0.3610    -0.7510    -0.6920 hc         1 4F5       0.024367
     37 H2          -0.3610    -0.2230     0.9970 hc         1 4F5       0.024367
     38 H3          -0.3610     0.9750    -0.3050 hc         1 4F5       0.024367
     39 H4           3.6440    -1.3810     0.5490 ha         1 4F5       0.125000
     40 H5           6.1020    -1.5610     0.5380 ha         1 4F5       0.120000
     41 H6           9.1390    -0.5340     0.3600 h1         1 4F5       0.033700
     42 H7           6.2740     0.9850    -2.9000 ha         1 4F5       0.120000
     43 H8           3.8170     1.1640    -2.8890 ha         1 4F5       0.125000
     44 H9           1.6810     0.0490    -2.0340 hn         1 4F5       0.170500
     45 H10         10.7150     1.3060     0.8630 hn         1 4F5       0.175500
     46 H11         12.0790     3.4140     1.3300 hc         1 4F5       0.018589
     47 H12         13.0630     2.1680     0.5490 hc         1 4F5       0.018589
     48 H13         13.1210     3.8360    -0.0360 hc         1 4F5       0.018589
     49 H14         11.1290     2.3080    -2.6710 hc         1 4F5       0.018589
     50 H15         12.2880     1.2840    -1.8120 hc         1 4F5       0.018589
     51 H16         12.7140     2.9510    -2.2220 hc         1 4F5       0.018589
     52 H17          9.8550     4.1940     0.0430 hc         1 4F5       0.018589
     53 H18         11.1760     4.8880    -0.9060 hc         1 4F5       0.018589
     54 H19          9.9200     3.9310    -1.7050 hc         1 4F5       0.018589
     55 H20          6.4080     2.0190    -0.4390 h4         1 4F5       0.177000
     56 H21          6.6940     1.0550     4.0910 h4         1 4F5       0.150000
     57 H22          8.4120    -0.1460     2.6570 ha         1 4F5       0.118000
     58 H23         10.1010    -1.8450    -1.2300 h1         1 4F5       0.054700
     59 H24         10.3510    -0.3260    -2.1010 h1         1 4F5       0.054700
     60 H25          9.7490    -4.2810    -1.5680 ha         1 4F5       0.101000
     61 H26         10.0790    -6.5880    -2.3540 ha         1 4F5       0.102000
     62 H27         10.8730    -7.0220    -4.6440 ha         1 4F5       0.107000
     63 H28         11.3430    -5.1740    -6.1680 ha         1 4F5       0.111000
     64 N03          7.7370    -0.4030    -1.1880 n          1 4F5       0.010000
@<TRIPOS>BOND
     1     1    14 1   
     2     1    36 1   
     3     1    37 1   
     4     1    38 1   
     5     2     3 ar  
     6     2    12 ar  
     7     2    39 1   
     8     3     9 ar  
     9     3    40 1   
    10     4     5 1   
    11     4    21 1   
    12     4    41 1   
    13     4    64 1   
    14     5    16 1   
    15     5    20 2   
    16     6    16 1   
    17     6    17 1   
    18     6    18 1   
    19     6    19 1   
    20     7     8 2   
    21     8    26 1   
    22     8    64 1   
    23     9    10 ar  
    24     9    64 1   
    25    10    11 ar  
    26    10    42 1   
    27    11    12 ar  
    28    11    43 1   
    29    12    13 1   
    30    13    14 1   
    31    13    44 1   
    32    14    15 2   
    33    16    45 1   
    34    17    46 1   
    35    17    47 1   
    36    17    48 1   
    37    18    49 1   
    38    18    50 1   
    39    18    51 1   
    40    19    52 1   
    41    19    53 1   
    42    19    54 1   
    43    21    22 2   
    44    21    25 1   
    45    22    23 1   
    46    22    55 1   
    47    23    24 1   
    48    24    25 2   
    49    24    56 1   
    50    25    57 1   
    51    26    27 1   
    52    26    58 1   
    53    26    59 1   
    54    27    28 1   
    55    27    35 1   
    56    28    29 ar  
    57    28    33 ar  
    58    29    30 ar  
    59    29    60 1   
    60    30    31 ar  
    61    30    61 1   
    62    31    32 ar  
    63    31    62 1   
    64    32    33 ar  
    65    32    63 1   
    66    33    34 1   
    67    34    35 2   
@<TRIPOS>SUBSTRUCTURE
     1 4F5         1 TEMP              0 ****  ****    0 ROOT
