@<TRIPOS>MOLECULE
4F6
   48    52     1     0     0
SMALL
bcc


@<TRIPOS>ATOM
      1 C1           0.0000     0.0000     0.0000 ca         1 4F6       0.112900
      2 C2           1.3840     0.0000     0.0000 ca         1 4F6      -0.125000
      3 C3           2.0750     0.0000     1.1970 ca         1 4F6      -0.063000
      4 C11          0.5570    -2.0940     4.0320 cc         1 4F6       0.602200
      5 C12          2.2230    -4.0360     3.0110 cd         1 4F6      -0.320300
      6 C13          1.2240    -3.4780     2.1900 cd         1 4F6       0.058000
      7 C14          0.4050    -2.5200     2.6990 cc         1 4F6      -0.323300
      8 C15          3.8690    -5.1460     3.8880 cc         1 4F6       0.035600
      9 C16          3.3890    -4.2940     4.8640 cd         1 4F6      -0.300300
     10 C17          3.8950    -4.1600     6.2410 ca         1 4F6       0.036200
     11 C18          5.0930    -4.7830     6.6100 ca         1 4F6      -0.112500
     12 C19          5.5620    -4.6590     7.8860 ca         1 4F6      -0.064000
     13 C20          4.8450    -3.9090     8.8250 ca         1 4F6       0.013000
     14 C21          3.6490    -3.2850     8.4560 ca         1 4F6      -0.064000
     15 C22          3.1820    -3.4050     7.1780 ca         1 4F6      -0.112500
     16 C23          5.3370    -3.7800    10.1640 cg         1 4F6       0.234800
     17 N5           5.7370    -3.6950    11.2240 n1         1 4F6      -0.387800
     18 N3           2.3500    -3.5980     4.3010 na         1 4F6       0.747200
     19 N2           1.4910    -2.6110     4.7960 nd         1 4F6      -0.735800
     20 N4           3.1460    -4.9660     2.7890 nc         1 4F6      -0.209600
     21 N1          -0.2860    -1.1130     4.5430 nh         1 4F6      -0.477300
     22 C10         -0.7370    -1.1560     5.9440 c3         1 4F6       0.047800
     23 C9          -0.4750     0.2140     6.5780 c3         1 4F6       0.263400
     24 O           -1.0540     1.2320     5.7560 os         1 4F6      -0.409600
     25 C8          -0.4920     1.3130     4.4430 c3         1 4F6       0.195400
     26 C7          -0.7500     0.0010     3.7010 c3         1 4F6       0.190800
     27 C5           0.0020     0.0010     2.3950 ca         1 4F6      -0.086300
     28 C6          -0.6910     0.0010     1.2000 ca         1 4F6      -0.132000
     29 F           -0.6760     0.0050    -1.1690 f          1 4F6      -0.122900
     30 C4           1.3840    -0.0000     2.3950 ca         1 4F6      -0.114000
     31 H1           1.9260    -0.0010    -0.9380 ha         1 4F6       0.124000
     32 H2           3.1580    -0.0000     1.1970 ha         1 4F6       0.114000
     33 H12          1.1120    -3.8160     1.1670 ha         1 4F6       0.125000
     34 H13         -0.3700    -2.0870     2.0770 ha         1 4F6       0.154000
     35 H14          4.8460    -5.6140     3.8760 h4         1 4F6       0.147000
     36 H15          5.6480    -5.3640     5.8830 ha         1 4F6       0.126500
     37 H16          6.4890    -5.1410     8.1720 ha         1 4F6       0.111500
     38 H17          3.0940    -2.7050     9.1830 ha         1 4F6       0.111500
     39 H18          2.2570    -2.9200     6.8920 ha         1 4F6       0.126500
     40 H10          0.1310    -1.1660     6.5910 h1         1 4F6       0.056200
     41 H11         -1.3090    -2.0630     6.1000 h1         1 4F6       0.056200
     42 H8          -0.9080     0.2300     7.5700 h1         1 4F6       0.014700
     43 H9           0.5950     0.3670     6.6520 h1         1 4F6       0.014700
     44 H7           0.5320     1.6570     4.5210 h1         1 4F6       0.022700
     45 H6          -1.0650     2.0250     3.8600 h1         1 4F6       0.022700
     46 H5          -1.8120    -0.1060     3.5140 h1         1 4F6       0.046700
     47 H4          -1.7750     0.0010     1.2010 ha         1 4F6       0.128000
     48 H3           1.9260    -0.0000     3.3330 ha         1 4F6       0.122000
@<TRIPOS>BOND
     1     1     2 ar  
     2     1    28 ar  
     3     1    29 1   
     4     2     3 ar  
     5     2    31 1   
     6     3    30 ar  
     7     3    32 1   
     8     4     7 1   
     9     4    19 2   
    10     4    21 1   
    11     5     6 1   
    12     5    18 1   
    13     5    20 2   
    14     6     7 2   
    15     6    33 1   
    16     7    34 1   
    17     8     9 2   
    18     8    20 1   
    19     8    35 1   
    20     9    10 1   
    21     9    18 1   
    22    10    11 ar  
    23    10    15 ar  
    24    11    12 ar  
    25    11    36 1   
    26    12    13 ar  
    27    12    37 1   
    28    13    14 ar  
    29    13    16 1   
    30    14    15 ar  
    31    14    38 1   
    32    15    39 1   
    33    16    17 3   
    34    18    19 1   
    35    21    22 1   
    36    21    26 1   
    37    22    23 1   
    38    22    40 1   
    39    22    41 1   
    40    23    24 1   
    41    23    42 1   
    42    23    43 1   
    43    24    25 1   
    44    25    26 1   
    45    25    44 1   
    46    25    45 1   
    47    26    27 1   
    48    26    46 1   
    49    27    28 ar  
    50    27    30 ar  
    51    28    47 1   
    52    30    48 1   
@<TRIPOS>SUBSTRUCTURE
     1 4F6         1 TEMP              0 ****  ****    0 ROOT
