@<TRIPOS>MOLECULE
4F7
   39    42     1     0     0
SMALL
bcc


@<TRIPOS>ATOM
      1 C1          0.0290    0.8940    0.3600 ca        1 4F7     -0.116000
      2 C2          1.3180    1.3570    0.6140 ca        1 4F7     -0.133000
      3 C3          1.9210    1.1250    1.8500 ca        1 4F7     -0.131000
      4 C4          1.2260    0.4280    2.8380 ca        1 4F7     -0.133000
      5 C5         -0.0630   -0.0370    2.5930 ca        1 4F7     -0.116000
      6 C6         -0.6750    0.1900    1.3490 ca        1 4F7     -0.100500
      7 N1         -2.8450    0.1350    0.0620 nc        1 4F7     -0.663000
      8 C7         -2.0150   -0.3080    1.1030 cc        1 4F7      0.354800
      9 C8         -2.6890   -1.3000    1.8520 cd        1 4F7     -0.237600
     10 C9         -3.9990   -0.5670    0.1730 cd        1 4F7      0.397800
     11 N2         -3.9370   -1.4590    1.2630 na        1 4F7     -0.316900
     12 C10        -5.2100   -0.4750   -0.6940 c3        1 4F7     -0.094700
     13 C11        -5.0790    0.6190   -1.7320 c3        1 4F7     -0.122700
     14 C12        -6.2760    0.7690   -2.6200 ca        1 4F7      0.314300
     15 C13        -6.2000    1.8350   -3.6140 ca        1 4F7      0.296900
     16 C14        -8.3010    1.2880   -4.3880 ca        1 4F7      0.277300
     17 C15        -9.3960    1.5000   -5.2770 ca        1 4F7     -0.154300
     18 C16       -10.5130    0.7050   -5.1960 ca        1 4F7     -0.126000
     19 C17       -10.5970   -0.3300   -4.2380 ca        1 4F7     -0.121000
     20 C18        -9.5650   -0.5670   -3.3630 ca        1 4F7     -0.162300
     21 C19        -8.3850    0.2350   -3.4120 ca        1 4F7      0.293300
     22 N3         -7.1690    2.0900   -4.4660 nb        1 4F7     -0.618000
     23 N4         -7.3450   -0.0080   -2.5270 nb        1 4F7     -0.641000
     24 H1         -0.4380    1.0840   -0.6180 ha        1 4F7      0.137500
     25 H2          1.8620    1.9090   -0.1670 ha        1 4F7      0.130000
     26 H3          2.9390    1.4920    2.0450 ha        1 4F7      0.129000
     27 H4          1.6960    0.2450    3.8150 ha        1 4F7      0.130000
     28 H5         -0.6070   -0.5790    3.3800 ha        1 4F7      0.137500
     29 H7         -2.3730   -1.8790    2.7180 h4        1 4F7      0.179000
     30 H8         -4.6470   -2.0780    1.5490 hn        1 4F7      0.301700
     31 H9         -6.1080   -0.2790   -0.0460 hc        1 4F7      0.067700
     32 H10        -5.3670   -1.4660   -1.2020 hc        1 4F7      0.067700
     33 H11        -4.1880    0.4160   -2.3870 hc        1 4F7      0.079200
     34 H12        -4.9010    1.6060   -1.2210 hc        1 4F7      0.079200
     35 H13        -5.2940    2.4650   -3.6650 h4        1 4F7      0.037100
     36 H14        -9.3300    2.3070   -6.0240 ha        1 4F7      0.153000
     37 H15       -11.3590    0.8670   -5.8810 ha        1 4F7      0.139000
     38 H16       -11.5070   -0.9490   -4.2000 ha        1 4F7      0.138000
     39 H17        -9.6320   -1.3750   -2.6170 ha        1 4F7      0.150000
@<TRIPOS>BOND
     1    1    2 ar  
     2    1    6 ar  
     3    1   24 1   
     4    2    3 ar  
     5    2   25 1   
     6    3    4 ar  
     7    3   26 1   
     8    4    5 ar  
     9    4   27 1   
    10    5    6 ar  
    11    5   28 1   
    12    6    8 1   
    13    7    8 1   
    14    7   10 2   
    15    8    9 2   
    16    9   11 1   
    17    9   29 1   
    18   10   11 1   
    19   10   12 1   
    20   11   30 1   
    21   12   13 1   
    22   12   31 1   
    23   12   32 1   
    24   13   14 1   
    25   13   33 1   
    26   13   34 1   
    27   14   15 ar  
    28   14   23 ar  
    29   15   22 ar  
    30   15   35 1   
    31   16   17 ar  
    32   16   21 ar  
    33   16   22 ar  
    34   17   18 ar  
    35   17   36 1   
    36   18   19 ar  
    37   18   37 1   
    38   19   20 ar  
    39   19   38 1   
    40   20   21 ar  
    41   20   39 1   
    42   21   23 ar  
@<TRIPOS>SUBSTRUCTURE
     1 4F7         1 TEMP              0 ****  ****    0 ROOT
