@<TRIPOS>MOLECULE
molecule
   39    42     1     0     0
SMALL
bcc


@<TRIPOS>ATOM
      1 C1           0.0000     0.0000     0.0000 ca         1 4F7      -0.113500
      2 C2           1.3800     0.0000     0.0000 ca         1 4F7      -0.131000
      3 C3           2.0750     0.0000     1.1960 ca         1 4F7      -0.130000
      4 C4           1.3910    -0.0010     2.3990 ca         1 4F7      -0.131000
      5 C5           0.0110    -0.0000     2.4110 ca         1 4F7      -0.113500
      6 C6          -0.6940     0.0000     1.2090 ca         1 4F7      -0.099500
      7 N1          -2.9780    -0.0000     0.1300 nc         1 4F7      -0.689000
      8 C7          -2.1770     0.0000     1.2160 cc         1 4F7       0.372800
      9 C8          -2.9740     0.0000     2.3160 cd         1 4F7      -0.261600
     10 C9          -4.2230    -0.0000     0.5160 cd         1 4F7       0.400800
     11 N2          -4.2650    -0.0010     1.8670 na         1 4F7      -0.291900
     12 C10         -5.4230    -0.0010    -0.3960 c3         1 4F7      -0.085700
     13 C11         -5.3270     1.1800    -1.3640 c3         1 4F7      -0.118700
     14 C12         -6.5270     1.1800    -2.2770 ca         1 4F7       0.307300
     15 C13         -7.3270     2.3210    -2.3650 ca         1 4F7       0.307900
     16 C14         -8.6830     1.2630    -3.8810 ca         1 4F7       0.293300
     17 C15         -9.8000     1.2550    -4.7350 ca         1 4F7      -0.156300
     18 C16        -10.0850     0.1410    -5.4620 ca         1 4F7      -0.121000
     19 C17         -9.2860    -0.9980    -5.3730 ca         1 4F7      -0.117000
     20 C18         -8.1980    -1.0270    -4.5570 ca         1 4F7      -0.160300
     21 C19         -7.8640     0.1080    -3.7980 ca         1 4F7       0.306300
     22 N3          -8.3770     2.3430    -3.1540 nb         1 4F7      -0.639000
     23 N4          -6.8040     0.1090    -2.9840 nb         1 4F7      -0.646000
     24 H1          -0.5430     0.0000    -0.9370 ha         1 4F7       0.137500
     25 H2           1.9200     0.0000    -0.9390 ha         1 4F7       0.128500
     26 H3           3.1580    -0.0000     1.1910 ha         1 4F7       0.127000
     27 H4           1.9400    -0.0010     3.3330 ha         1 4F7       0.128500
     28 H5          -0.5240    -0.0010     3.3530 ha         1 4F7       0.137500
     29 H7          -2.6500     0.0000     3.3500 h4         1 4F7       0.177000
     30 H8          -5.0890    -0.0010     2.4340 hn         1 4F7       0.298700
     31 H9          -6.3260     0.0880     0.1940 hc         1 4F7       0.065700
     32 H10         -5.4480    -0.9270    -0.9580 hc         1 4F7       0.065700
     33 H11         -4.4230     1.0910    -1.9550 hc         1 4F7       0.071700
     34 H12         -5.3010     2.1060    -0.8020 hc         1 4F7       0.071700
     35 H13         -7.0790     3.1970    -1.7780 h4         1 4F7       0.032100
     36 H14        -10.4300     2.1330    -4.8140 ha         1 4F7       0.150000
     37 H15        -10.9470     0.1380    -6.1190 ha         1 4F7       0.136000
     38 H16         -9.5350    -1.8720    -5.9620 ha         1 4F7       0.136000
     39 H17         -7.5860    -1.9190    -4.4980 ha         1 4F7       0.151000
@<TRIPOS>BOND
     1    19    18 ar
     2    19    20 ar
     3    18    17 ar
     4    20    21 ar
     5    17    16 ar
     6    21    16 ar
     7    21    23 ar
     8    16    22 ar
     9    23    14 ar
    10    22    15 ar
    11    14    15 ar
    12    14    13 1
    13    13    12 1
    14    12    10 1
    15    10     7 2
    16    10    11 1
    17     7     8 1
    18     1     2 ar
    19     1     6 ar
    20     2     3 ar
    21    11     9 1
    22     8     6 1
    23     8     9 2
    24     6     5 ar
    25     3     4 ar
    26     5     4 ar
    27     1    24 1
    28     2    25 1
    29     3    26 1
    30     4    27 1
    31     5    28 1
    32     9    29 1
    33    11    30 1
    34    12    31 1
    35    12    32 1
    36    13    33 1
    37    13    34 1
    38    15    35 1
    39    17    36 1
    40    18    37 1
    41    19    38 1
    42    20    39 1
@<TRIPOS>SUBSTRUCTURE
     1 4F7         1 TEMP              0 ****  ****    0 ROOT
