@<TRIPOS>MOLECULE
4F8
   23    24     1     0     0
SMALL
bcc


@<TRIPOS>ATOM
      1 N4C        -0.0070   -0.0920   -0.1160 nc        1 4F8     -0.651000
      2 C5C         1.3660   -0.0270   -0.0890 cc        1 4F8      0.304800
      3 C6C         1.8190    0.1110    1.2730 cd        1 4F8     -0.181200
      4 C7C         3.1520    0.2290    1.9980 c         1 4F8      0.934200
      5 O8C         4.1880    0.5790    1.3860 o         1 4F8     -0.832800
      6 O9C         3.1260   -0.0080    3.2510 o         1 4F8     -0.832800
      7 C1D        -1.8190   -0.0250    1.6320 ca        1 4F8     -0.011500
      8 C2D        -2.8610   -0.1630    0.6880 ca        1 4F8     -0.159000
      9 C3D        -4.1870   -0.1880    1.0960 ca        1 4F8     -0.130500
     10 C4D        -4.5190   -0.0770    2.4480 ca        1 4F8     -0.204000
     11 C5D        -3.5010    0.0600    3.3890 ca        1 4F8     -0.130500
     12 C6D        -2.1670    0.0860    2.9920 ca        1 4F8     -0.159000
     13 C7D        -0.4470   -0.0030    1.1900 cd        1 4F8      0.277000
     14 O           2.5750   -1.2630   -1.7390 o         1 4F8     -0.841300
     15 O2          2.3080    0.9270   -2.0710 o         1 4F8     -0.841300
     16 N3          0.6650    0.1280    2.0420 na        1 4F8     -0.272900
     17 C6          2.1630   -0.1230   -1.3850 c         1 4F8      0.860100
     18 H3          0.6670    0.1540    3.0280 hn        1 4F8      0.293700
     19 H2D        -2.6080   -0.2510   -0.3810 ha        1 4F8      0.141000
     20 H6D        -1.3890    0.1950    3.7600 ha        1 4F8      0.141000
     21 H3D        -4.9850   -0.2960    0.3470 ha        1 4F8      0.099500
     22 H4D        -5.5700   -0.0970    2.7650 ha        1 4F8      0.096000
     23 H5D        -3.7510    0.1480    4.4560 ha        1 4F8      0.099500
@<TRIPOS>BOND
     1    1    2 1   
     2    1   13 2   
     3    2    3 2   
     4    2   17 1   
     5    3    4 1   
     6    3   16 1   
     7    4    5 1   
     8    4    6 1   
     9    7    8 ar  
    10    7   12 ar  
    11    7   13 1   
    12    8    9 ar  
    13    8   19 1   
    14    9   10 ar  
    15    9   21 1   
    16   10   11 ar  
    17   10   22 1   
    18   11   12 ar  
    19   11   23 1   
    20   12   20 1   
    21   13   16 1   
    22   14   17 1   
    23   15   17 1   
    24   16   18 1   
@<TRIPOS>SUBSTRUCTURE
     1 4F8         1 TEMP              0 ****  ****    0 ROOT
