@<TRIPOS>MOLECULE
molecule
   23    24     1     0     0
SMALL
bcc


@<TRIPOS>ATOM
      1 N4C          0.0000     0.0000     0.0000 nc         1 4F8      -0.650000
      2 C5C          1.3400     0.0000     0.0000 cc         1 4F8       0.303800
      3 C6C          1.7600     0.0000     1.3250 cd         1 4F8      -0.184200
      4 C7C          3.1480    -0.0000     1.8100 c          1 4F8       0.888200
      5 O8C          4.0690    -0.0000     1.0170 o          1 4F8      -0.818300
      6 O9C          3.4010     0.0010     3.1350 o          1 4F8      -0.818300
      7 C1D         -1.8620     0.0000     1.6430 ca         1 4F8      -0.027500
      8 C2D         -2.8650     0.0010     0.6730 ca         1 4F8      -0.141500
      9 C3D         -4.1910    -0.0040     1.0570 ca         1 4F8      -0.136000
     10 C4D         -4.5250    -0.0110     2.4000 ca         1 4F8      -0.189000
     11 C5D         -3.5350    -0.0100     3.3660 ca         1 4F8      -0.136000
     12 C6D         -2.2070    -0.0050     2.9960 ca         1 4F8      -0.141500
     13 C7D         -0.4390     0.0000     1.2390 cd         1 4F8       0.303000
     14 O            3.4210    -0.0020    -1.0620 o          1 4F8      -0.826800
     15 O2           1.6690    -0.0020    -2.4250 o          1 4F8      -0.826800
     16 N3           0.6210    -0.0000     2.0920 na         1 4F8      -0.275900
     17 C6           2.2130    -0.0020    -1.1930 c          1 4F8       0.798100
     18 H3           0.5780     0.0000     3.0920 hn         1 4F8       0.286700
     19 H2D         -2.6050     0.0050    -0.3780 ha         1 4F8       0.145000
     20 H6D         -1.4320    -0.0050     3.7530 ha         1 4F8       0.145000
     21 H3D         -4.9710    -0.0040     0.3060 ha         1 4F8       0.103000
     22 H4D         -5.5670    -0.0150     2.6960 ha         1 4F8       0.095000
     23 H5D         -3.8040    -0.0150     4.4150 ha         1 4F8       0.103000
@<TRIPOS>BOND
     1     1     2 1
     2     1    13 2
     3     2     3 2
     4     2    17 1
     5     3     4 1
     6     3    16 1
     7     4     5 1
     8     4     6 1
     9     7     8 ar
    10     7    12 ar
    11     7    13 1
    12     8     9 ar
    13     9    10 ar
    14    10    11 ar
    15    11    12 ar
    16    13    16 1
    17    14    17 1
    18    15    17 1
    19    16    18 1
    20     8    19 1
    21    12    20 1
    22     9    21 1
    23    10    22 1
    24    11    23 1
@<TRIPOS>SUBSTRUCTURE
     1 4F8         1 TEMP              0 ****  ****    0 ROOT
