@<TRIPOS>MOLECULE
molecule
   18    19     1     0     0
SMALL
bcc


@<TRIPOS>ATOM
      1 C7           0.0000     0.0000     0.0000 ca         1 4F9      -0.254800
      2 C4           0.0820    -0.0000     2.4010 ca         1 4F9      -0.254800
      3 C6           1.3790     0.0000     0.0000 ca         1 4F9       0.429700
      4 C5           1.4570    -0.0000     2.3080 ca         1 4F9       0.429700
      5 C2          -3.0070     0.0010     0.2130 cc         1 4F9       0.348200
      6 C           -4.2280     0.0020     1.9950 cd         1 4F9       0.410400
      7 C3          -0.6780    -0.0000     1.2250 ca         1 4F9       0.040000
      8 C1          -2.1550     0.0010     1.2740 cd         1 4F9      -0.203600
      9 N2           2.0570     0.0000     1.1320 nb         1 4F9      -0.695000
     10 N           -2.9420     0.0010     2.4050 na         1 4F9      -0.289900
     11 N1          -4.2560     0.0080     0.6880 nc         1 4F9      -0.697000
     12 H1          -0.5500     0.0000    -0.9330 ha         1 4F9       0.136000
     13 H2          -0.4040    -0.0000     3.3690 ha         1 4F9       0.136000
     14 H3           1.9130     0.0000    -0.9420 h4         1 4F9       0.025100
     15 H4           2.0540    -0.0000     3.2120 h4         1 4F9       0.025100
     16 H6          -5.0950     0.0040     2.6430 h5         1 4F9       0.068100
     17 H7          -2.6200    -0.0010     3.3530 hn         1 4F9       0.301700
     18 H5          -2.7220     0.0030    -0.8320 h4         1 4F9       0.045100
@<TRIPOS>BOND
     1    11     5 1   
     2    11     6 2   
     3     5     8 2   
     4     6    10 1   
     5     8    10 1   
     6     8     7 1   
     7     1     7 ar  
     8     1     3 ar  
     9     7     2 ar  
    10     3     9 ar  
    11     2     4 ar  
    12     9     4 ar  
    13     1    12 1   
    14     2    13 1   
    15     3    14 1   
    16     4    15 1   
    17     5    18 1   
    18     6    16 1   
    19    10    17 1   
@<TRIPOS>SUBSTRUCTURE
     1 4F9         1 TEMP              0 ****  ****    0 ROOT
