@<TRIPOS>MOLECULE
4FA
   19    19     1     0     0
SMALL
bcc


@<TRIPOS>ATOM
      1 C1         -0.0070   -0.0190   -0.0110 ca        1 4FA     -0.096300
      2 C2          1.3930   -0.0100   -0.0000 ca        1 4FA     -0.102000
      3 C3         -0.7010   -0.0060    1.2050 ca        1 4FA     -0.102000
      4 C4         -0.7480   -0.0330   -1.2990 c3        1 4FA     -0.041100
      5 C5          2.0970    0.0100    1.1990 ca        1 4FA     -0.164000
      6 C6         -0.0180    0.0140    2.4160 ca        1 4FA     -0.164000
      7 C7          1.3900    0.0210    2.4160 ca        1 4FA      0.122900
      8 F8          2.0650    0.0410    3.5890 f         1 4FA     -0.141900
      9 C13        -1.0150   -1.4600   -1.7580 c3        1 4FA      0.134400
     10 O14        -1.7210   -1.3690   -2.9860 oh        1 4FA     -0.603800
     11 HC2         1.9450   -0.0160   -0.9530 ha        1 4FA      0.139000
     12 HC3        -1.8020   -0.0090    1.2040 ha        1 4FA      0.139000
     13 HC41       -1.7280    0.5040   -1.1930 hc        1 4FA      0.064700
     14 HC42       -0.1630    0.5010   -2.0940 hc        1 4FA      0.064700
     15 HC5         3.1960    0.0180    1.2080 ha        1 4FA      0.149000
     16 HC6        -0.5620    0.0250    3.3710 ha        1 4FA      0.149000
     17 H131       -0.0490   -2.0130   -1.9100 h1        1 4FA      0.025700
     18 H132       -1.6340   -2.0090   -0.9990 h1        1 4FA      0.025700
     19 H14        -1.8880   -2.2740   -3.2740 ho        1 4FA      0.402000
@<TRIPOS>BOND
     1    1    2 ar  
     2    1    3 ar  
     3    1    4 1   
     4    2    5 ar  
     5    2   11 1   
     6    3    6 ar  
     7    3   12 1   
     8    4    9 1   
     9    4   13 1   
    10    4   14 1   
    11    5    7 ar  
    12    5   15 1   
    13    6    7 ar  
    14    6   16 1   
    15    7    8 1   
    16    9   10 1   
    17    9   17 1   
    18    9   18 1   
    19   10   19 1   
@<TRIPOS>SUBSTRUCTURE
     1 4FA         1 TEMP              0 ****  ****    0 ROOT
