@<TRIPOS>MOLECULE
molecule
   19    19     1     0     0
SMALL
bcc


@<TRIPOS>ATOM
      1 C1           0.0000     0.0000     0.0000 ca         1 4FA      -0.102300
      2 C2           1.3810     0.0000     0.0000 ca         1 4FA      -0.098000
      3 C3          -0.6940     0.0060     1.1950 ca         1 4FA      -0.098000
      4 C4          -0.7530    -0.0000    -1.3070 c3         1 4FA      -0.033100
      5 C5           2.0710     0.0000     1.1980 ca         1 4FA      -0.166000
      6 C6          -0.0050     0.0020     2.3930 ca         1 4FA      -0.166000
      7 C7           1.3780     0.0020     2.3960 ca         1 4FA       0.131900
      8 F8           2.0520     0.0030     3.5660 f          1 4FA      -0.140900
      9 C13         -1.0090    -1.4430    -1.7470 c3         1 4FA       0.143400
     10 O14         -1.7210    -1.4440    -2.9850 oh         1 4FA      -0.613800
     11 HC2          1.9230    -0.0030    -0.9380 ha         1 4FA       0.139000
     12 HC3         -1.7780     0.0060     1.1930 ha         1 4FA       0.139000
     13 HC41        -1.6990     0.5110    -1.1780 hc         1 4FA       0.061700
     14 HC42        -0.1660     0.5090    -2.0620 hc         1 4FA       0.061700
     15 HC5          3.1550    -0.0000     1.1990 ha         1 4FA       0.146000
     16 HC6         -0.5480     0.0050     3.3310 ha         1 4FA       0.146000
     17 H131        -0.0620    -1.9540    -1.8740 h1         1 4FA       0.023200
     18 H132        -1.5960    -1.9520    -0.9920 h1         1 4FA       0.023200
     19 H14         -1.8790    -2.3330    -3.2560 ho         1 4FA       0.404000
@<TRIPOS>BOND
     1     1     2 ar  
     2     1     3 ar  
     3     1     4 1   
     4     2     5 ar  
     5     2    11 1   
     6     3     6 ar  
     7     3    12 1   
     8     4     9 1   
     9     4    13 1   
    10     4    14 1   
    11     5     7 ar  
    12     5    15 1   
    13     6     7 ar  
    14     6    16 1   
    15     7     8 1   
    16     9    10 1   
    17     9    17 1   
    18     9    18 1   
    19    10    19 1   
@<TRIPOS>SUBSTRUCTURE
     1 4FA         1 TEMP              0 ****  ****    0 ROOT
