@<TRIPOS>MOLECULE
4FC
   24    25     1     0     0
SMALL
bcc


@<TRIPOS>ATOM
      1 C1         -0.0020    0.0200   -0.0290 ca        1 4FC     -0.167000
      2 C2          1.4030   -0.0020   -0.0290 ca        1 4FC      0.091900
      3 C3          2.1080   -0.0220    1.1880 ca        1 4FC     -0.167000
      4 C4          1.4050   -0.0210    2.3870 ca        1 4FC     -0.111000
      5 C5          0.0010    0.0010    2.4040 cp        1 4FC      0.000000
      6 C6         -0.6880    0.0210    1.1800 ca        1 4FC     -0.111000
      7 C7         -0.2690   -0.7560    4.7550 ca        1 4FC     -0.140000
      8 C8         -0.7280    0.0030    3.6670 cp        1 4FC     -0.095000
      9 C9         -1.8980    0.7630    3.8140 ca        1 4FC     -0.140000
     10 C10        -2.5900    0.7640    5.0220 ca        1 4FC     -0.114000
     11 C11        -2.1340    0.0060    6.1050 ca        1 4FC     -0.107600
     12 C12        -0.9680   -0.7540    5.9590 ca        1 4FC     -0.114000
     13 F1          2.0820   -0.0030   -1.2050 f         1 4FC     -0.158900
     14 C13        -2.8940    0.0070    7.4250 c         1 4FC      0.906200
     15 O1         -3.9440    0.7060    7.4980 o         1 4FC     -0.827300
     16 O2         -2.4330   -0.6900    8.3720 o         1 4FC     -0.827300
     17 HA1        -0.5460    0.0340   -0.9840 ha        1 4FC      0.135000
     18 HA2         3.2060   -0.0370    1.1800 ha        1 4FC      0.135000
     19 HB1         1.9550   -0.0300    3.3410 ha        1 4FC      0.143000
     20 HB2        -1.7890    0.0310    1.1820 ha        1 4FC      0.143000
     21 HC1        -2.2630    1.3690    2.9730 ha        1 4FC      0.109000
     22 HD2        -3.5080    1.3590    5.1540 ha        1 4FC      0.154000
     23 HD1        -0.6230   -1.3480    6.8210 ha        1 4FC      0.154000
     24 HC2         0.6410   -1.3630    4.6500 ha        1 4FC      0.109000
@<TRIPOS>BOND
     1    1    2 ar  
     2    1    6 ar  
     3    1   17 1   
     4    2    3 ar  
     5    2   13 1   
     6    3    4 ar  
     7    3   18 1   
     8    4    5 ar  
     9    4   19 1   
    10    5    6 ar  
    11    5    8 1   
    12    6   20 1   
    13    7    8 ar  
    14    7   12 ar  
    15    7   24 1   
    16    8    9 ar  
    17    9   10 ar  
    18    9   21 1   
    19   10   11 ar  
    20   10   22 1   
    21   11   12 ar  
    22   11   14 1   
    23   12   23 1   
    24   14   15 1   
    25   14   16 1   
@<TRIPOS>SUBSTRUCTURE
     1 4FC         1 TEMP              0 ****  ****    0 ROOT
