@<TRIPOS>MOLECULE
molecule
   24    25     1     0     0
SMALL
bcc


@<TRIPOS>ATOM
      1 C1           0.0000     0.0000     0.0000 ca         1 4FC      -0.170000
      2 C2           1.3860     0.0000     0.0000 ca         1 4FC       0.102900
      3 C3           2.0830     0.0000     1.1970 ca         1 4FC      -0.170000
      4 C4           1.4000     0.0060     2.3950 ca         1 4FC      -0.105000
      5 C5           0.0060    -0.0000     2.4010 cp         1 4FC      -0.010000
      6 C6          -0.6920    -0.0000     1.1940 ca         1 4FC      -0.105000
      7 C7          -0.2740    -0.7730     4.7540 ca         1 4FC      -0.141500
      8 C8          -0.7330     0.0000     3.6870 cp         1 4FC      -0.090000
      9 C9          -1.8860     0.7730     3.8270 ca         1 4FC      -0.141500
     10 C10         -2.5760     0.7700     5.0190 ca         1 4FC      -0.105000
     11 C11         -2.1130     0.0020     6.0910 ca         1 4FC      -0.088600
     12 C12         -0.9580    -0.7730     5.9480 ca         1 4FC      -0.105000
     13 F1           2.0580     0.0010    -1.1720 f          1 4FC      -0.158900
     14 C13         -2.8480     0.0010     7.3710 c          1 4FC       0.879200
     15 O1          -3.9610     0.7480     7.5080 o          1 4FC      -0.834300
     16 O2          -2.4500    -0.6700     8.3010 o          1 4FC      -0.834300
     17 HA1         -0.5410     0.0000    -0.9390 ha         1 4FC       0.133000
     18 HA2          3.1660     0.0020     1.1920 ha         1 4FC       0.133000
     19 HB1          1.9460     0.0060     3.3310 ha         1 4FC       0.143000
     20 HB2         -1.7750    -0.0030     1.1930 ha         1 4FC       0.143000
     21 HC1         -2.2430     1.3690     2.9960 ha         1 4FC       0.109500
     22 HD2         -3.4710     1.3700     5.1290 ha         1 4FC       0.152500
     23 HD1         -0.6010    -1.3710     6.7780 ha         1 4FC       0.152500
     24 HC2          0.6210    -1.3720     4.6430 ha         1 4FC       0.109500
@<TRIPOS>BOND
     1     1     2 ar
     2     1     6 ar
     3     1    17 1
     4     2     3 ar
     5     2    13 1
     6     3     4 ar
     7     3    18 1
     8     4     5 ar
     9     4    19 1
    10     5     6 ar
    11     5     8 1
    12     6    20 1
    13     7     8 ar
    14     7    12 ar
    15     7    24 1
    16     8     9 ar
    17     9    10 ar
    18     9    21 1
    19    10    11 ar
    20    10    22 1
    21    11    12 ar
    22    11    14 1
    23    12    23 1
    24    14    15 1
    25    14    16 1
@<TRIPOS>SUBSTRUCTURE
     1 4FC         1 TEMP              0 ****  ****    0 ROOT
