@<TRIPOS>MOLECULE
molecule
   31    32     1     0     0
SMALL
bcc


@<TRIPOS>ATOM
      1 N1           0.0000     0.0000     0.0000 nz         1 4FD      -0.677400
      2 C4           2.0850    -0.0010    -1.2780 ca         1 4FD      -0.427900
      3 C5           3.4880    -0.0070    -1.2900 ca         1 4FD       0.043000
      4 C6           4.1310    -0.0150    -2.4990 ca         1 4FD      -0.321300
      5 C7           3.3800    -0.0140    -3.6730 ca         1 4FD       0.755200
      6 C10          5.9390    -0.0340    -6.3910 ca         1 4FD      -0.143300
      7 C13          6.7610    -0.0470    -9.0300 ca         1 4FD      -0.099000
      8 C15          6.1500     1.1590    -7.0540 ca         1 4FD      -0.105500
      9 C17          1.3970    -0.0020    -2.4930 ca         1 4FD       0.516200
     10 C12          6.5570    -1.2400    -8.3640 ca         1 4FD      -0.123000
     11 C14          6.5610     1.1540    -8.3740 ca         1 4FD      -0.123000
     12 C11          6.1450    -1.2350    -7.0450 ca         1 4FD      -0.105500
     13 C2           1.3480     0.0000     0.0000 c          1 4FD       0.513700
     14 C9           5.4900    -0.0290    -4.9520 c3         1 4FD       0.273100
     15 N16          2.0530    -0.0090    -3.6330 nb         1 4FD      -0.743000
     16 N8           4.0270    -0.0220    -4.8970 nu         1 4FD      -0.849900
     17 O3           1.9560     0.0000     1.0520 o          1 4FD      -0.441100
     18 H1          -0.3340    -0.8170    -0.4720 hn         1 4FD       0.474467
     19 H2          -0.3340    -0.0000     0.9440 hn         1 4FD       0.474467
     20 H3           4.0500    -0.0070    -0.3640 ha         1 4FD       0.173000
     21 H4           5.2130    -0.0200    -2.5430 ha         1 4FD       0.171000
     22 H5           7.0840    -0.0520   -10.0640 ha         1 4FD       0.145000
     23 H6           5.9910     2.0990    -6.5400 ha         1 4FD       0.134000
     24 H7           0.3140     0.0020    -2.4970 h4         1 4FD      -0.002900
     25 H8           6.7160    -2.1810    -8.8780 ha         1 4FD       0.144000
     26 H9           6.7240     2.0900    -8.8950 ha         1 4FD       0.144000
     27 H10          5.9820    -2.1710    -6.5240 ha         1 4FD       0.134000
     28 H11          5.8750     0.8550    -4.4580 h1         1 4FD       0.060700
     29 H12          5.8660    -0.9140    -4.4530 h1         1 4FD       0.060700
     30 H13          3.4940    -0.0220    -5.7440 hn         1 4FD       0.474800
     31 H131        -0.3340     0.8170    -0.4720 hn         1 4FD       0.474467
@<TRIPOS>BOND
     1     7    10 ar
     2     7    11 ar
     3    10    12 ar
     4    11     8 ar
     5    12     6 ar
     6     8     6 ar
     7     6    14 1
     8    14    16 1
     9    16     5 1
    10     4     5 ar
    11     4     3 ar
    12     5    15 ar
    13     3     2 ar
    14    15     9 ar
    15     2     9 ar
    16     2    13 1
    17    13    17 2
    18    13     1 1
    19     1    18 1
    20     1    19 1
    21     3    20 1
    22     4    21 1
    23     7    22 1
    24     8    23 1
    25     9    24 1
    26    10    25 1
    27    11    26 1
    28    12    27 1
    29    14    28 1
    30    14    29 1
    31    16    30 1
    32    31     1 1
@<TRIPOS>SUBSTRUCTURE
     1 4FD         1 TEMP              0 ****  ****    0 ROOT
