@<TRIPOS>MOLECULE
molecule
   23    23     1     0     0
SMALL
bcc


@<TRIPOS>ATOM
      1 C8           0.0000     0.0000     0.0000 c3         1 4FE       0.130700
      2 O4           1.4280     0.0000     0.0000 os         1 4FE      -0.325900
      3 C5           2.0450     0.0000     1.2100 ca         1 4FE       0.086100
      4 C6           1.2870     0.0000     2.3740 ca         1 4FE      -0.207000
      5 C7           1.9060    -0.0010     3.6040 ca         1 4FE      -0.111000
      6 C2           3.3040    -0.0010     3.6830 ca         1 4FE      -0.031800
      7 C3           4.0670    -0.0000     2.5100 ca         1 4FE      -0.142000
      8 C1           3.4380    -0.0050     1.2810 ca         1 4FE       0.073100
      9 C10          3.9660    -0.0010     4.9940 ce         1 4FE      -0.176200
     10 C4           3.2280     0.0000     6.1260 cf         1 4FE      -0.134200
     11 C9           3.8690     0.0000     7.3910 c          1 4FE       0.859800
     12 O2           5.0830     0.0000     7.4580 o          1 4FE      -0.841800
     13 O1           3.1300     0.0000     8.5200 o          1 4FE      -0.841800
     14 H8          -0.3610     0.8840     0.5110 h1         1 4FE       0.033033
     15 H8A         -0.3610     0.0000    -1.0210 h1         1 4FE       0.033033
     16 H8B         -0.3610    -0.8850     0.5100 h1         1 4FE       0.033033
     17 H6           0.2050     0.0010     2.3140 ha         1 4FE       0.125000
     18 H7           1.3120    -0.0010     4.5100 ha         1 4FE       0.148000
     19 H3           5.1490    -0.0030     2.5670 ha         1 4FE       0.143000
     20 HO3          4.5580    -0.8600     0.0130 ho         1 4FE       0.405000
     21 H10          5.0480    -0.0020     5.0540 ha         1 4FE       0.154000
     22 H4           2.1460     0.0010     6.0670 ha         1 4FE       0.102000
     23 O3           4.1760    -0.0060     0.1400 oh         1 4FE      -0.515100
@<TRIPOS>BOND
     1     1     2 1   
     2     1    14 1   
     3     1    15 1   
     4     1    16 1   
     5     3     2 1   
     6     8     3 ar  
     7     3     4 ar  
     8     5     4 ar  
     9     4    17 1   
    10     6     5 ar  
    11     5    18 1   
    12     7     6 ar  
    13     9     6 1   
    14     7     8 ar  
    15     7    19 1   
    16    23     8 1   
    17    23    20 1   
    18    10     9 2   
    19     9    21 1   
    20    11    10 1   
    21    10    22 1   
    22    12    11 1   
    23    11    13 1   
@<TRIPOS>SUBSTRUCTURE
     1 4FE         1 TEMP              0 ****  ****    0 ROOT
