@<TRIPOS>MOLECULE
4FE
   23    23     1     0     0
SMALL
bcc


@<TRIPOS>ATOM
      1 C8          0.2590   -0.4790    0.0180 c3        1 4FE      0.119700
      2 O4          1.5530   -0.9920    0.3200 os        1 4FE     -0.356900
      3 C5          2.0950   -0.4610    1.4900 ca        1 4FE     -0.027900
      4 C6          1.5460   -0.7140    2.7510 ca        1 4FE     -0.122000
      5 C7          2.1720   -0.2220    3.8900 ca        1 4FE     -0.135000
      6 C2          3.3630    0.5200    3.7940 ca        1 4FE      0.025200
      7 C3          3.9190    0.7650    2.5270 ca        1 4FE     -0.171000
      8 C1          3.2850    0.2800    1.3790 ca        1 4FE      0.101100
      9 C10         4.0340    1.0740    4.9570 ce        1 4FE     -0.192200
     10 C4          3.9140    0.7220    6.2420 cf        1 4FE     -0.133200
     11 C9          3.0860   -0.3680    6.8810 c         1 4FE      0.894800
     12 O2          3.6980   -1.3900    7.2990 o         1 4FE     -0.830300
     13 O1          1.8410   -0.1830    7.0160 o         1 4FE     -0.830300
     14 H8         -0.0510   -1.0400   -0.8990 h1        1 4FE      0.031033
     15 H8A         0.3130    0.6180   -0.1880 h1        1 4FE      0.031033
     16 H8B        -0.4500   -0.6750    0.8590 h1        1 4FE      0.031033
     17 H6          0.6210   -1.3020    2.8350 ha        1 4FE      0.131000
     18 H7          1.7340   -0.4130    4.8910 ha        1 4FE      0.208000
     19 H3          4.8520    1.3350    2.4230 ha        1 4FE      0.136000
     20 HO3         3.3490    0.0910   -0.5150 ho        1 4FE      0.420000
     21 H10         4.7400    1.8880    4.7000 ha        1 4FE      0.086000
     22 H4          4.5180    1.2670    6.9900 ha        1 4FE      0.098000
     23 O3          3.8720    0.5500    0.1590 oh        1 4FE     -0.516100
@<TRIPOS>BOND
     1    1    2 1   
     2    1   14 1   
     3    1   15 1   
     4    1   16 1   
     5    2    3 1   
     6    3    4 ar  
     7    3    8 ar  
     8    4    5 ar  
     9    4   17 1   
    10    5    6 ar  
    11    5   18 1   
    12    6    7 ar  
    13    6    9 1   
    14    7    8 ar  
    15    7   19 1   
    16    8   23 1   
    17    9   10 2   
    18    9   21 1   
    19   10   11 1   
    20   10   22 1   
    21   11   12 1   
    22   11   13 1   
    23   20   23 1   
@<TRIPOS>SUBSTRUCTURE
     1 4FE         1 TEMP              0 ****  ****    0 ROOT
