@<TRIPOS>MOLECULE
4FF
   24    25     1     0     0
SMALL
bcc


@<TRIPOS>ATOM
      1 O14         0.1120   -0.0150    0.1550 o         1 4FF     -0.821300
      2 C12         1.3160   -0.3680    0.0740 c         1 4FF      0.835100
      3 O13         1.9900   -0.8400    1.0350 o         1 4FF     -0.821300
      4 C10         2.0450   -0.1920   -1.2500 cc        1 4FF      0.299800
      5 C9          3.4290    0.1190   -1.3830 cd        1 4FF     -0.196900
      6 N8          3.6820    0.2100   -2.7520 na        1 4FF     -0.318900
      7 C7          2.4650   -0.0470   -3.4140 cd        1 4FF      0.363000
      8 N11         1.4700   -0.2920   -2.5070 nc        1 4FF     -0.619000
      9 C6          2.3220   -0.0410   -4.8630 ca        1 4FF     -0.065500
     10 C1          1.0360    0.0350   -5.4300 ca        1 4FF     -0.128500
     11 C2          0.8790    0.0450   -6.8120 ca        1 4FF     -0.135500
     12 C3          1.9920   -0.0180   -7.6520 ca        1 4FF     -0.156000
     13 C4          3.2680   -0.0980   -7.0980 ca        1 4FF     -0.135500
     14 C5          3.4350   -0.1130   -5.7140 ca        1 4FF     -0.128500
     15 C15         4.4380    0.3100   -0.3330 c3        1 4FF     -0.035800
     16 H8          4.5390    0.4320   -3.1750 hn        1 4FF      0.275700
     17 H151        5.3370   -0.3320   -0.5080 hc        1 4FF      0.050700
     18 H152        3.9670    0.0210    0.6480 hc        1 4FF      0.050700
     19 H153        4.7710    1.3770   -0.2840 hc        1 4FF      0.050700
     20 H1          0.1530    0.0830   -4.7720 ha        1 4FF      0.142500
     21 H5          4.4520   -0.1950   -5.3040 ha        1 4FF      0.142500
     22 H2         -0.1300    0.1030   -7.2450 ha        1 4FF      0.118500
     23 H3          1.8630   -0.0070   -8.7430 ha        1 4FF      0.115000
     24 H4          4.1490   -0.1540   -7.7530 ha        1 4FF      0.118500
@<TRIPOS>BOND
     1    1    2 1   
     2    2    3 1   
     3    2    4 1   
     4    4    5 2   
     5    4    8 1   
     6    5    6 1   
     7    5   15 1   
     8    6    7 1   
     9    6   16 1   
    10    7    8 2   
    11    7    9 1   
    12    9   10 ar  
    13    9   14 ar  
    14   10   11 ar  
    15   10   20 1   
    16   11   12 ar  
    17   11   22 1   
    18   12   13 ar  
    19   12   23 1   
    20   13   14 ar  
    21   13   24 1   
    22   14   21 1   
    23   15   17 1   
    24   15   18 1   
    25   15   19 1   
@<TRIPOS>SUBSTRUCTURE
     1 4FF         1 TEMP              0 ****  ****    0 ROOT
