@<TRIPOS>MOLECULE
molecule
   24    25     1     0     0
SMALL
bcc


@<TRIPOS>ATOM
      1 O14          0.0000     0.0000     0.0000 o          1 4FF      -0.832800
      2 C12          1.3470     0.0000     0.0000 c          1 4FF       0.808100
      3 O13          1.9550     0.0000     1.0520 o          1 4FF      -0.832800
      4 C10          2.0840    -0.0000    -1.2740 cc         1 4FF       0.316800
      5 C9           3.4430    -0.0000    -1.4190 cd         1 4FF      -0.211900
      6 N8           3.6990    -0.0020    -2.7480 na         1 4FF      -0.301900
      7 C7           2.4980    -0.0020    -3.4000 cd         1 4FF       0.374000
      8 N11          1.5370    -0.0060    -2.5090 nc         1 4FF      -0.625000
      9 C6           2.3140    -0.0030    -4.8680 ca         1 4FF      -0.065500
     10 C1           1.0290    -0.0030    -5.4120 ca         1 4FF      -0.123500
     11 C2           0.8630    -0.0050    -6.7820 ca         1 4FF      -0.133000
     12 C3           1.9680    -0.0060    -7.6150 ca         1 4FF      -0.153000
     13 C4           3.2440    -0.0050    -7.0820 ca         1 4FF      -0.133000
     14 C5           3.4230     0.0030    -5.7140 ca         1 4FF      -0.123500
     15 C15          4.4620     0.0010    -0.3090 c3         1 4FF       0.007200
     16 H8           4.6040    -0.0000    -3.1760 hn         1 4FF       0.273700
     17 H151         5.4590     0.0020    -0.7330 hc         1 4FF       0.041033
     18 H152         4.3300    -0.8830     0.3030 hc         1 4FF       0.041033
     19 H153         4.3290     0.8860     0.3020 hc         1 4FF       0.041033
     20 H1           0.1630    -0.0030    -4.7610 ha         1 4FF       0.142000
     21 H5           4.4230     0.0030    -5.2970 ha         1 4FF       0.142000
     22 H2          -0.1340    -0.0050    -7.2060 ha         1 4FF       0.118000
     23 H3           1.8330    -0.0090    -8.6900 ha         1 4FF       0.113000
     24 H4           4.1050    -0.0030    -7.7390 ha         1 4FF       0.118000
@<TRIPOS>BOND
     1     1     2 1
     2     2     3 1
     3     2     4 1
     4     4     5 2
     5     4     8 1
     6     5     6 1
     7     5    15 1
     8     6     7 1
     9     7     8 2
    10     7     9 1
    11     9    10 ar
    12     9    14 ar
    13    10    11 ar
    14    11    12 ar
    15    12    13 ar
    16    13    14 ar
    17     6    16 1
    18    15    17 1
    19    15    18 1
    20    15    19 1
    21    10    20 1
    22    14    21 1
    23    11    22 1
    24    12    23 1
    25    13    24 1
@<TRIPOS>SUBSTRUCTURE
     1 4FF         1 TEMP              0 ****  ****    0 ROOT
