@<TRIPOS>MOLECULE
4FG
   18    18     1     0     0
SMALL
bcc


@<TRIPOS>ATOM
      1 C2           0.0000     0.0000     0.0000 ca         1 4FG       0.054000
      2 C3           1.3690     0.0000     0.0000 ca         1 4FG      -0.222300
      3 C5           0.0790    -0.0050     2.4110 ca         1 4FG       0.456200
      4 C1          -0.6690    -0.0000     1.2330 ca         1 4FG      -0.383900
      5 C4           2.0520     0.0000     1.2140 ca         1 4FG       0.600200
      6 C           -2.1440     0.0060     1.2840 c          1 4FG       0.365700
      7 N2           1.3950    -0.0010     2.3670 nb         1 4FG      -0.569000
      8 N1           3.4370    -0.0000     1.2190 nv         1 4FG      -0.663500
      9 N           -2.7770     0.0050     2.4740 nz         1 4FG       0.201600
     10 O           -2.7880     0.0110     0.2520 o          1 4FG      -0.429100
     11 H1          -0.5540     0.0020    -0.9310 ha         1 4FG       0.138000
     12 H2           1.9160     0.0000    -0.9350 ha         1 4FG       0.148000
     13 H3          -0.4260    -0.0050     3.3690 h4         1 4FG      -0.047900
     14 H4           3.9370    -0.8670     1.2340 hn         1 4FG       0.303800
     15 H5           3.9370     0.8670     1.2340 hn         1 4FG       0.303800
     16 H6          -2.5200    -0.8140     2.9880 hn         1 4FG       0.247467
     17 H7          -3.7670     0.0090     2.3260 hn         1 4FG       0.247467
     18 HN3         -2.5140     0.8200     2.9920 hn         1 4FG       0.247467
@<TRIPOS>BOND
     1     1     2 ar  
     2     1     4 ar  
     3     1    11 1   
     4     2     5 ar  
     5     2    12 1   
     6     3     4 ar  
     7     3     7 ar  
     8     3    13 1   
     9     4     6 1   
    10     5     7 ar  
    11     5     8 1   
    12     6     9 1   
    13     6    10 2   
    14     8    14 1   
    15     8    15 1   
    16     9    16 1   
    17     9    17 1   
    18     9    18 1   
@<TRIPOS>SUBSTRUCTURE
     1 4FG         1 TEMP              0 ****  ****    0 ROOT
