@<TRIPOS>MOLECULE
molecule
   16    16     1     0     0
SMALL
bcc


@<TRIPOS>ATOM
      1 S1           0.0000     0.0000     0.0000 s          1 4FH      -0.551400
      2 C1           1.7120     0.0000     0.0000 cs         1 4FH       0.401600
      3 C2           2.4130     0.0000     1.2170 cc         1 4FH      -0.111200
      4 C3           3.7770    -0.0000     1.2010 cd         1 4FH      -0.115200
      5 C6           4.5540    -0.0010     2.4930 c3         1 4FH       0.671100
      6 F1           4.8930    -1.3160     2.8320 f          1 4FH      -0.214300
      7 F2           5.7200     0.7560     2.3380 f          1 4FH      -0.214300
      8 F3           3.7690     0.5540     3.5090 f          1 4FH      -0.214300
      9 C4           4.4500     0.0010    -0.0300 cd         1 4FH      -0.183000
     10 C5           3.7430     0.0020    -1.1850 cc         1 4FH      -0.008400
     11 N1           2.3850    -0.0040    -1.1660 n          1 4FH      -0.099500
     12 O2           1.6680    -0.0030    -2.3870 oh         1 4FH      -0.333100
     13 H1           1.8830    -0.1610     2.1480 ha         1 4FH       0.196000
     14 H2           5.5330     0.0030    -0.0570 ha         1 4FH       0.173000
     15 H3           4.2670     0.0010    -2.1330 h4         1 4FH       0.179000
     16 H4           1.5950    -0.8860    -2.7090 ho         1 4FH       0.423000
@<TRIPOS>BOND
     1    10     9 2   
     2    10    11 1   
     3     9     4 1   
     4     8     5 1   
     5     7     5 1   
     6    12    11 1   
     7    11     2 1   
     8     4     5 1   
     9     4     3 2   
    10     5     6 1   
    11     2     3 1   
    12     2     1 2   
    13     3    13 1   
    14     9    14 1   
    15    10    15 1   
    16    12    16 1   
@<TRIPOS>SUBSTRUCTURE
     1 4FH         1 TEMP              0 ****  ****    0 ROOT
