@<TRIPOS>MOLECULE
4FH
   16    16     1     0     0
SMALL
bcc


@<TRIPOS>ATOM
      1 S1           0.0000     0.0000     0.0000 s          1 4FH      -0.608400
      2 C1           1.7120     0.0000     0.0000 cs         1 4FH       0.185600
      3 C2           2.4130     0.0000     1.2170 cc         1 4FH      -0.035200
      4 C3           3.7770    -0.0000     1.2010 cd         1 4FH      -0.166200
      5 C6           4.5540    -0.0010     2.4930 c3         1 4FH       0.639100
      6 F1           4.8930    -1.3160     2.8320 f          1 4FH      -0.200300
      7 F2           5.7200     0.7560     2.3380 f          1 4FH      -0.200300
      8 F3           3.7690     0.5540     3.5090 f          1 4FH      -0.200300
      9 C4           4.4500     0.0010    -0.0300 cd         1 4FH      -0.101000
     10 C5           3.7430     0.0020    -1.1850 cc         1 4FH      -0.203400
     11 N1           2.3850    -0.0040    -1.1660 n          1 4FH       0.448500
     12 O2           1.6680    -0.0030    -2.3870 oh         1 4FH      -0.436100
     13 H1           1.8830    -0.1610     2.1480 ha         1 4FH       0.162000
     14 H2           5.5330     0.0030    -0.0570 ha         1 4FH       0.140000
     15 H3           4.2670     0.0010    -2.1330 h4         1 4FH       0.150000
     16 H4           1.5950    -0.8860    -2.7090 ho         1 4FH       0.425000
@<TRIPOS>BOND
     1     1     2 2   
     2     2     3 1   
     3     2    11 1   
     4     3     4 2   
     5     3    13 1   
     6     4     5 1   
     7     4     9 1   
     8     5     6 1   
     9     5     7 1   
    10     5     8 1   
    11     9    10 2   
    12     9    14 1   
    13    10    11 1   
    14    10    15 1   
    15    11    12 1   
    16    12    16 1   
@<TRIPOS>SUBSTRUCTURE
     1 4FH         1 TEMP              0 ****  ****    0 ROOT
