@<TRIPOS>MOLECULE
4FI
   50    53     1     0     0
SMALL
bcc


@<TRIPOS>ATOM
      1 C1           0.0000     0.0000     0.0000 ca         1 4FI      -0.103000
      2 C2           2.0770     0.0000     1.1960 ca         1 4FI      -0.056300
      3 C3           1.4370    -0.0110     2.3970 ca         1 4FI      -0.089000
      4 C4           3.5840    -0.0070     1.1580 c3         1 4FI       0.024900
      5 C5           4.0870    -1.4510     1.1290 c3         1 4FI      -0.095300
      6 C6           5.5910    -1.4600     1.2150 c          1 4FI       0.975600
      7 N7           3.6650    -2.0910    -0.1200 ns         1 4FI      -0.103900
      8 O8           6.2450    -1.9520     0.3260 o          1 4FI      -0.883300
      9 O9           6.2060    -0.9240     2.2810 o          1 4FI      -0.883300
     10 C10          3.5310    -3.4300    -0.1790 c          1 4FI       0.619700
     11 C11          1.3610     0.0000     0.0000 ca         1 4FI      -0.101000
     12 O12          3.8540    -4.1170     0.7710 o          1 4FI      -0.679100
     13 C13          2.9940    -4.0630    -1.3950 cc         1 4FI      -0.352900
     14 N14          2.7140    -5.3890    -1.5710 na         1 4FI       0.661400
     15 N15          2.2590    -5.5850    -2.7560 nc         1 4FI      -0.667800
     16 C16          2.2040    -4.4540    -3.4290 cd         1 4FI       0.335800
     17 C17          2.6670    -3.4320    -2.5800 cd         1 4FI      -0.250300
     18 C18          1.7320    -4.2870    -4.8270 ca         1 4FI      -0.056500
     19 C19          1.2930    -5.3920    -5.5520 ca         1 4FI      -0.096500
     20 C20          0.8560    -5.2320    -6.8510 ca         1 4FI      -0.117000
     21 C21          0.8540    -3.9760    -7.4330 ca         1 4FI      -0.122000
     22 C22          1.2900    -2.8760    -6.7170 ca         1 4FI      -0.117000
     23 C23          1.7240    -3.0250    -5.4150 ca         1 4FI      -0.096500
     24 C24          2.9050    -6.4310    -0.5600 c3         1 4FI      -0.016400
     25 C25         -0.6960     0.0010     1.2200 ca         1 4FI      -0.056000
     26 C26          0.0320    -0.0050     2.4360 ca         1 4FI      -0.032000
     27 C27         -0.6640    -0.0140     3.6560 ca         1 4FI      -0.084000
     28 C28         -2.0260    -0.0080     3.6550 ca         1 4FI      -0.113000
     29 C29         -2.7410     0.0080     2.4590 ca         1 4FI      -0.118000
     30 C30         -2.1020     0.0070     1.2590 ca         1 4FI      -0.086000
     31 H1          -0.5910     0.2360    -0.8770 ha         1 4FI       0.098000
     32 H3           1.9410     0.2440     3.3210 ha         1 4FI       0.119000
     33 H4           3.9690     0.4920     2.0390 hc         1 4FI       0.036200
     34 H4A          3.9250     0.5120     0.2710 hc         1 4FI       0.036200
     35 H5           3.6740    -1.9940     1.9710 h1         1 4FI       0.056700
     36 HN7          3.4240    -1.5290    -0.9120 hn         1 4FI       0.159500
     37 H11          1.6870     0.6260    -0.8220 ha         1 4FI       0.105000
     38 H17          2.7560    -2.3770    -2.8090 ha         1 4FI       0.138000
     39 H19          1.3580    -6.3840    -5.1220 ha         1 4FI       0.115500
     40 H20          0.5120    -6.0900    -7.4160 ha         1 4FI       0.095000
     41 H21          0.5070    -3.8540    -8.4520 ha         1 4FI       0.092000
     42 H22          1.2870    -1.8960    -7.1770 ha         1 4FI       0.095000
     43 H23          2.1170    -2.0670    -5.0970 ha         1 4FI       0.115500
     44 H24          2.5840    -7.3850    -0.9600 h1         1 4FI       0.035033
     45 H24A         3.9530    -6.4860    -0.2910 h1         1 4FI       0.035033
     46 H24B         2.3190    -6.1920     0.3190 h1         1 4FI       0.035033
     47 H27         -0.1210    -0.0260     4.5930 ha         1 4FI       0.106000
     48 H28         -2.5600    -0.0070     4.5970 ha         1 4FI       0.093000
     49 H29         -3.8240     0.0130     2.4860 ha         1 4FI       0.092000
     50 H30         -2.6720     0.0190     0.3380 ha         1 4FI       0.099000
@<TRIPOS>BOND
     1     1    11 ar  
     2     1    25 ar  
     3     1    31 1   
     4     2     3 ar  
     5     2     4 1   
     6     2    11 ar  
     7     3    26 ar  
     8     3    32 1   
     9     4     5 1   
    10     4    33 1   
    11     4    34 1   
    12     5     6 1   
    13     5     7 1   
    14     5    35 1   
    15     6     8 1   
    16     6     9 1   
    17     7    10 1   
    18     7    36 1   
    19    10    12 2   
    20    10    13 1   
    21    11    37 1   
    22    13    14 1   
    23    13    17 2   
    24    14    15 1   
    25    14    24 1   
    26    15    16 2   
    27    16    17 1   
    28    16    18 1   
    29    17    38 1   
    30    18    19 ar  
    31    18    23 ar  
    32    19    20 ar  
    33    19    39 1   
    34    20    21 ar  
    35    20    40 1   
    36    21    22 ar  
    37    21    41 1   
    38    22    23 ar  
    39    22    42 1   
    40    23    43 1   
    41    24    44 1   
    42    24    45 1   
    43    24    46 1   
    44    25    26 ar  
    45    25    30 ar  
    46    26    27 ar  
    47    27    28 ar  
    48    27    47 1   
    49    28    29 ar  
    50    28    48 1   
    51    29    30 ar  
    52    29    49 1   
    53    30    50 1   
@<TRIPOS>SUBSTRUCTURE
     1 4FI         1 TEMP              0 ****  ****    0 ROOT
