@<TRIPOS>MOLECULE
4FJ
   68    74     1     0     0
SMALL
bcc


@<TRIPOS>ATOM
      1 C11          0.0000     0.0000     0.0000 c3         1 4FJ       0.037200
      2 C13          1.3190    -0.5550    -4.8130 ca         1 4FJ      -0.073000
      3 C14          0.0470    -0.0010    -4.8170 ca         1 4FJ      -0.211300
      4 C16          1.1280    -1.1980     3.1500 c3         1 4FJ       0.154800
      5 C17          0.4340    -0.6710     4.4120 c3         1 4FJ      -0.088300
      6 C19          1.1490     1.1470     3.1120 ca         1 4FJ      -0.035700
      7 C21          0.8490     3.4610     3.6580 ca         1 4FJ      -0.048700
      8 C22          1.3290     2.4930     2.7840 ca         1 4FJ      -0.163000
      9 C23         -1.0170    -1.1430     4.4550 c3         1 4FJ      -0.056900
     10 C24         -1.0460    -2.6660     4.6210 c3         1 4FJ       0.207400
     11 C25          1.0570    -2.6630     5.7750 c3         1 4FJ       0.207400
     12 C27          0.4230     5.1500     2.0610 c3         1 4FJ       0.092300
     13 C28          0.6720     6.6290     1.7550 c3         1 4FJ       0.213400
     14 C30          0.4260     5.6550     4.4270 c3         1 4FJ       0.092300
     15 O1          -0.3240    -3.0290     5.8000 os         1 4FJ      -0.403600
     16 C26          1.1780    -1.1400     5.6610 c3         1 4FJ      -0.056900
     17 C18          0.4960     0.8320     4.2960 ca         1 4FJ       0.264600
     18 N4           0.0540     1.7820     5.0990 nb         1 4FJ      -0.483000
     19 C20          0.2060     3.0600     4.8240 ca         1 4FJ       0.278200
     20 N5           1.0080     4.8180     3.3680 nh         1 4FJ      -0.350000
     21 O2           0.1260     7.4260     2.8100 os         1 4FJ      -0.409600
     22 C29          0.6750     7.1310     4.0970 c3         1 4FJ       0.213400
     23 N2           1.5350     0.0020     2.4120 nh         1 4FJ      -0.210400
     24 C7           2.2030     0.0000     1.1960 ca         1 4FJ       0.043600
     25 C8           1.5070     0.0000     0.0000 ca         1 4FJ      -0.148600
     26 C1           3.6190     0.0050     1.1430 ca         1 4FJ      -0.149300
     27 C6           4.3890     0.0120     2.3120 ca         1 4FJ      -0.063000
     28 C5           5.7490     0.0160     2.2250 ca         1 4FJ      -0.119000
     29 C4           6.3850     0.0140     0.9840 ca         1 4FJ       0.111900
     30 F1           7.7350     0.0190     0.9270 f          1 4FJ      -0.126900
     31 C3           5.6630     0.0090    -0.1740 ca         1 4FJ      -0.177300
     32 C2           4.2590     0.0030    -0.1210 ca         1 4FJ       0.385600
     33 N1           3.5300    -0.0030    -1.2410 nb         1 4FJ      -0.546000
     34 C9           2.2100    -0.0030    -1.2080 cp         1 4FJ       0.336300
     35 C10          1.4550    -0.0100    -2.4860 cp         1 4FJ       0.311300
     36 C12          2.0340    -0.5590    -3.6280 ca         1 4FJ      -0.176300
     37 C15         -0.4650     0.5320    -3.6470 ca         1 4FJ       0.396200
     38 N3           0.2390     0.5190    -2.5340 nb         1 4FJ      -0.573000
     39 H1          -0.3610    -0.0900     1.0170 hc         1 4FJ       0.027033
     40 H2          -0.3610     0.9260    -0.4310 hc         1 4FJ       0.027033
     41 H3          -0.3610    -0.8360    -0.5870 hc         1 4FJ       0.027033
     42 H4           1.7420    -0.9770    -5.7170 ha         1 4FJ       0.111000
     43 H5          -0.5400     0.0160    -5.7270 ha         1 4FJ       0.114000
     44 H6           0.4360    -1.7850     2.5590 h1         1 4FJ       0.028700
     45 H7           1.9980    -1.7860     3.4180 h1         1 4FJ       0.028700
     46 H8           1.8340     2.7770     1.8690 ha         1 4FJ       0.128000
     47 H9          -1.5120    -0.8710     3.5310 hc         1 4FJ       0.034700
     48 H10         -1.5220    -0.6790     5.2940 hc         1 4FJ       0.034700
     49 H11         -0.5850    -3.1310     3.7580 h1         1 4FJ       0.008200
     50 H12         -2.0740    -2.9980     4.7120 h1         1 4FJ       0.008200
     51 H13          1.5340    -2.9940     6.6900 h1         1 4FJ       0.008200
     52 H14          1.5380    -3.1280     4.9230 h1         1 4FJ       0.008200
     53 H16          0.8850     4.5410     1.2930 h1         1 4FJ       0.028450
     54 H17          1.7380     6.8080     1.6830 h1         1 4FJ       0.014700
     55 H18          0.1910     6.8900     0.8200 h1         1 4FJ       0.014700
     56 H19         -0.6400     5.4740     4.4850 h1         1 4FJ       0.028450
     57 H20          0.8920     5.4140     5.3750 h1         1 4FJ       0.028450
     58 H21          2.2230    -0.8660     5.5820 hc         1 4FJ       0.034700
     59 H22          0.7410    -0.6770     6.5370 hc         1 4FJ       0.034700
     60 H23         -0.1720     3.8060     5.5120 h4         1 4FJ       0.000100
     61 H24          0.1960     7.7520     4.8440 h1         1 4FJ       0.014700
     62 H25          1.7410     7.3230     4.0880 h1         1 4FJ       0.014700
     63 H26          3.9060     0.0130     3.2820 ha         1 4FJ       0.121000
     64 H27          6.3430     0.0210     3.1310 ha         1 4FJ       0.121000
     65 H28          6.1710     0.0070    -1.1310 ha         1 4FJ       0.134000
     66 H29          3.0300    -0.9840    -3.5880 ha         1 4FJ       0.130000
     67 H30         -1.4560     0.9690    -3.6470 h4         1 4FJ      -0.018900
     68 H15         -0.6440     4.9620     2.0850 h1         1 4FJ       0.028450
@<TRIPOS>BOND
     1     1    25 1   
     2     1    39 1   
     3     1    40 1   
     4     1    41 1   
     5     2     3 ar  
     6     2    36 ar  
     7     2    42 1   
     8     3    37 ar  
     9     3    43 1   
    10     4     5 1   
    11     4    23 1   
    12     4    44 1   
    13     4    45 1   
    14     5     9 1   
    15     5    16 1   
    16     5    17 1   
    17     6     8 ar  
    18     6    17 ar  
    19     6    23 1   
    20     7     8 ar  
    21     7    19 ar  
    22     7    20 1   
    23     8    46 1   
    24     9    10 1   
    25     9    47 1   
    26     9    48 1   
    27    10    15 1   
    28    10    49 1   
    29    10    50 1   
    30    11    15 1   
    31    11    16 1   
    32    11    51 1   
    33    11    52 1   
    34    12    13 1   
    35    12    20 1   
    36    12    53 1   
    37    12    68 1   
    38    13    21 1   
    39    13    54 1   
    40    13    55 1   
    41    14    20 1   
    42    14    22 1   
    43    14    56 1   
    44    14    57 1   
    45    16    58 1   
    46    16    59 1   
    47    17    18 ar  
    48    18    19 ar  
    49    19    60 1   
    50    21    22 1   
    51    22    61 1   
    52    22    62 1   
    53    23    24 1   
    54    24    25 ar  
    55    24    26 ar  
    56    25    34 ar  
    57    26    27 ar  
    58    26    32 ar  
    59    27    28 ar  
    60    27    63 1   
    61    28    29 ar  
    62    28    64 1   
    63    29    30 1   
    64    29    31 ar  
    65    31    32 ar  
    66    31    65 1   
    67    32    33 ar  
    68    33    34 ar  
    69    34    35 1   
    70    35    36 ar  
    71    35    38 ar  
    72    36    66 1   
    73    37    38 ar  
    74    37    67 1   
@<TRIPOS>SUBSTRUCTURE
     1 4FJ         1 TEMP              0 ****  ****    0 ROOT
