@<TRIPOS>MOLECULE
molecule
   68    74     1     0     0
SMALL
bcc


@<TRIPOS>ATOM
      1 C11          0.0000     0.0000     0.0000 c3         1 4FJ      -0.041800
      2 C13          1.3190    -0.5550    -4.8130 ca         1 4FJ      -0.100000
      3 C14          0.0470    -0.0010    -4.8170 ca         1 4FJ      -0.244300
      4 C16          1.1280    -1.1980     3.1500 c3         1 4FJ       0.242800
      5 C17          0.4340    -0.6710     4.4120 c3         1 4FJ      -0.103300
      6 C19          1.1490     1.1470     3.1120 ca         1 4FJ       0.090300
      7 C21          0.8490     3.4610     3.6580 ca         1 4FJ       0.022300
      8 C22          1.3290     2.4930     2.7840 ca         1 4FJ      -0.177000
      9 C23         -1.0170    -1.1430     4.4550 c3         1 4FJ      -0.102900
     10 C24         -1.0460    -2.6660     4.6210 c3         1 4FJ       0.132400
     11 C25          1.0570    -2.6630     5.7750 c3         1 4FJ       0.132400
     12 C27          0.4230     5.1500     2.0610 c3         1 4FJ       0.124300
     13 C28          0.6720     6.6290     1.7550 c3         1 4FJ       0.136900
     14 C30          0.4260     5.6550     4.4270 c3         1 4FJ       0.124300
     15 O1          -0.3240    -3.0290     5.8000 os         1 4FJ      -0.416600
     16 C26          1.1780    -1.1400     5.6610 c3         1 4FJ      -0.102900
     17 C18          0.4960     0.8320     4.2960 ca         1 4FJ       0.334600
     18 N4           0.0540     1.7820     5.0990 nb         1 4FJ      -0.627000
     19 C20          0.2060     3.0600     4.8240 ca         1 4FJ       0.326200
     20 N5           1.0080     4.8180     3.3680 nh         1 4FJ      -0.591000
     21 O2           0.1260     7.4260     2.8100 os         1 4FJ      -0.422600
     22 C29          0.6750     7.1310     4.0970 c3         1 4FJ       0.136900
     23 N2           1.5350     0.0020     2.4120 nh         1 4FJ      -0.609400
     24 C7           2.2030     0.0000     1.1960 ca         1 4FJ       0.192600
     25 C8           1.5070     0.0000     0.0000 ca         1 4FJ      -0.169600
     26 C1           3.6190     0.0050     1.1430 ca         1 4FJ      -0.167300
     27 C6           4.3890     0.0120     2.3120 ca         1 4FJ      -0.079000
     28 C5           5.7490     0.0160     2.2250 ca         1 4FJ      -0.161000
     29 C4           6.3850     0.0140     0.9840 ca         1 4FJ       0.143900
     30 F1           7.7350     0.0190     0.9270 f          1 4FJ      -0.136900
     31 C3           5.6630     0.0090    -0.1740 ca         1 4FJ      -0.213300
     32 C2           4.2590     0.0030    -0.1210 ca         1 4FJ       0.440600
     33 N1           3.5300    -0.0030    -1.2410 nb         1 4FJ      -0.677000
     34 C9           2.2100    -0.0030    -1.2080 cp         1 4FJ       0.400300
     35 C10          1.4550    -0.0100    -2.4860 cp         1 4FJ       0.363300
     36 C12          2.0340    -0.5590    -3.6280 ca         1 4FJ      -0.204300
     37 C15         -0.4650     0.5320    -3.6470 ca         1 4FJ       0.414200
     38 N3           0.2390     0.5190    -2.5340 nb         1 4FJ      -0.686000
     39 H1          -0.3610    -0.0900     1.0170 hc         1 4FJ       0.056700
     40 H2          -0.3610     0.9260    -0.4310 hc         1 4FJ       0.056700
     41 H3          -0.3610    -0.8360    -0.5870 hc         1 4FJ       0.056700
     42 H4           1.7420    -0.9770    -5.7170 ha         1 4FJ       0.142000
     43 H5          -0.5400     0.0160    -5.7270 ha         1 4FJ       0.140000
     44 H6           0.4360    -1.7850     2.5590 h1         1 4FJ       0.052200
     45 H7           1.9980    -1.7860     3.4180 h1         1 4FJ       0.052200
     46 H8           1.8340     2.7770     1.8690 ha         1 4FJ       0.151000
     47 H9          -1.5120    -0.8710     3.5310 hc         1 4FJ       0.064700
     48 H10         -1.5220    -0.6790     5.2940 hc         1 4FJ       0.064700
     49 H11         -0.5850    -3.1310     3.7580 h1         1 4FJ       0.046450
     50 H12         -2.0740    -2.9980     4.7120 h1         1 4FJ       0.046450
     51 H13          1.5340    -2.9940     6.6900 h1         1 4FJ       0.046450
     52 H14          1.5380    -3.1280     4.9230 h1         1 4FJ       0.046450
     53 H16          0.8850     4.5410     1.2930 h1         1 4FJ       0.053700
     54 H17          1.7380     6.8080     1.6830 h1         1 4FJ       0.056950
     55 H18          0.1910     6.8900     0.8200 h1         1 4FJ       0.056950
     56 H19         -0.6400     5.4740     4.4850 h1         1 4FJ       0.053700
     57 H20          0.8920     5.4140     5.3750 h1         1 4FJ       0.053700
     58 H21          2.2230    -0.8660     5.5820 hc         1 4FJ       0.064700
     59 H22          0.7410    -0.6770     6.5370 hc         1 4FJ       0.064700
     60 H23         -0.1720     3.8060     5.5120 h4         1 4FJ       0.030100
     61 H24          0.1960     7.7520     4.8440 h1         1 4FJ       0.056950
     62 H25          1.7410     7.3230     4.0880 h1         1 4FJ       0.056950
     63 H26          3.9060     0.0130     3.2820 ha         1 4FJ       0.151000
     64 H27          6.3430     0.0210     3.1310 ha         1 4FJ       0.149000
     65 H28          6.1710     0.0070    -1.1310 ha         1 4FJ       0.164000
     66 H29          3.0300    -0.9840    -3.5880 ha         1 4FJ       0.160000
     67 H30         -1.4560     0.9690    -3.6470 h4         1 4FJ       0.025100
     68 H15         -0.6440     4.9620     2.0850 h1         1 4FJ       0.053700
@<TRIPOS>BOND
     1    30    29 1
     2    29    28 ar
     3    29    31 ar
     4    28    27 ar
     5    31    32 ar
     6    27    26 ar
     7    10    15 1
     8    10     9 1
     9    32    26 ar
    10    32    33 ar
    11    15    11 1
    12    26    24 ar
    13     9     5 1
    14    11    16 1
    15    33    34 ar
    16     4     5 1
    17     4    23 1
    18    24    23 1
    19    24    25 ar
    20     5    16 1
    21     5    17 1
    22    23     6 1
    23    34    25 ar
    24    34    35 1
    25    25     1 1
    26    17     6 ar
    27    17    18 ar
    28     6     8 ar
    29    35    38 ar
    30    35    36 ar
    31    38    37 ar
    32    18    19 ar
    33    36     2 ar
    34     8     7 ar
    35    37     3 ar
    36     2     3 ar
    37    19     7 ar
    38     7    20 1
    39    20    14 1
    40    20    12 1
    41    14    22 1
    42    13    12 1
    43    13    21 1
    44    22    21 1
    45     1    39 1
    46     1    40 1
    47     1    41 1
    48     2    42 1
    49     3    43 1
    50     4    44 1
    51     4    45 1
    52     8    46 1
    53     9    47 1
    54     9    48 1
    55    10    49 1
    56    10    50 1
    57    11    51 1
    58    11    52 1
    59    12    68 1
    60    12    53 1
    61    13    54 1
    62    13    55 1
    63    14    56 1
    64    14    57 1
    65    16    58 1
    66    16    59 1
    67    19    60 1
    68    22    61 1
    69    22    62 1
    70    27    63 1
    71    28    64 1
    72    31    65 1
    73    36    66 1
    74    37    67 1
@<TRIPOS>SUBSTRUCTURE
     1 4FJ         1 TEMP              0 ****  ****    0 ROOT
