@<TRIPOS>MOLECULE
molecule
   18    19     1     0     0
SMALL
bcc


@<TRIPOS>ATOM
      1 C4           0.0000     0.0000     0.0000 ca         1 4FL      -0.239300
      2 C7           0.0800     0.0000     2.4000 ca         1 4FL      -0.239300
      3 C5           1.3800     0.0000     0.0000 ca         1 4FL       0.422200
      4 C6           1.4560     0.0000     2.3080 ca         1 4FL       0.422200
      5 C1          -4.2270     0.0000     2.0050 cc         1 4FL      -0.265600
      6 C           -4.2290     0.0000     0.6560 cd         1 4FL       0.314200
      7 C3          -0.6790     0.0000     1.2230 ca         1 4FL      -0.070500
      8 C2          -2.1570    -0.0000     1.2720 cc         1 4FL       0.443000
      9 N2           2.0570     0.0000     1.1330 nb         1 4FL      -0.690000
     10 N           -2.9200    -0.0010     2.4030 na         1 4FL      -0.285900
     11 N1          -2.9610     0.0000     0.2320 nd         1 4FL      -0.677000
     12 H1          -0.5500    -0.0000    -0.9340 ha         1 4FL       0.146000
     13 H2          -0.4070     0.0000     3.3680 ha         1 4FL       0.146000
     14 H3           1.9150    -0.0000    -0.9420 h4         1 4FL       0.026100
     15 H4           2.0520    -0.0000     3.2120 h4         1 4FL       0.026100
     16 H6          -5.1090     0.0000     0.0240 h4         1 4FL       0.044100
     17 H7          -2.5850    -0.0010     3.3460 hn         1 4FL       0.301700
     18 H5          -5.0970    -0.0000     2.6510 h4         1 4FL       0.176000
@<TRIPOS>BOND
     1     5    10 1   
     2     5     6 2   
     3    10     8 1   
     4     6    11 1   
     5     8    11 2   
     6     8     7 1   
     7     1     7 ar  
     8     1     3 ar  
     9     7     2 ar  
    10     3     9 ar  
    11     2     4 ar  
    12     9     4 ar  
    13     1    12 1   
    14     2    13 1   
    15     3    14 1   
    16     4    15 1   
    17     5    18 1   
    18     6    16 1   
    19    10    17 1   
@<TRIPOS>SUBSTRUCTURE
     1 4FL         1 TEMP              0 ****  ****    0 ROOT
