@<TRIPOS>MOLECULE
molecule
   30    31     1     0     0
SMALL
bcc


@<TRIPOS>ATOM
      1 F1           0.0000     0.0000     0.0000 f          1 4FP      -0.138900
      2 C2           1.3390     0.0000     0.0000 ca         1 4FP       0.128900
      3 C3           2.0350     0.0000     1.2090 ca         1 4FP      -0.168000
      4 C4           3.4310     0.0000     1.2100 ca         1 4FP      -0.100000
      5 C5           4.1150     0.0000     0.0010 ca         1 4FP      -0.097300
      6 C6           5.6200     0.0000     0.0030 c3         1 4FP      -0.031100
      7 C7           6.1840     1.4190     0.0030 c3         1 4FP      -0.066700
      8 C8           7.6250     1.4390     0.5250 c3         1 4FP      -0.072900
      9 C9           8.2300     2.8390     0.4220 c3         1 4FP       0.161300
     10 N10          8.1720     3.3590    -0.9460 n7         1 4FP      -0.817200
     11 C11          6.7890     3.4110    -1.4270 c3         1 4FP       0.161300
     12 C12          6.1260     2.0340    -1.4010 c3         1 4FP      -0.072900
     13 C13          3.4320    -0.0000    -1.2060 ca         1 4FP      -0.100000
     14 C14          2.0370    -0.0010    -1.2070 ca         1 4FP      -0.168000
     15 H3           1.4930    -0.0000     2.1460 ha         1 4FP       0.144000
     16 H4           3.9760     0.0000     2.1460 ha         1 4FP       0.139000
     17 H61          5.9740    -0.5200    -0.8790 hc         1 4FP       0.050700
     18 H62          5.9720    -0.5200     0.8850 hc         1 4FP       0.050700
     19 H7           5.5780     2.0280     0.6630 hc         1 4FP       0.048700
     20 H81          8.2230     0.7520    -0.0610 hc         1 4FP       0.048200
     21 H82          7.6300     1.1270     1.5620 hc         1 4FP       0.048200
     22 H91          9.2650     2.7980     0.7380 h1         1 4FP       0.029450
     23 H92          7.6820     3.5070     1.0750 h1         1 4FP       0.029450
     24 HN10         8.5690     4.2770    -0.9710 hn         1 4FP       0.355800
     25 H111         6.7860     3.7840    -2.4450 h1         1 4FP       0.029450
     26 H112         6.2230     4.0870    -0.7970 h1         1 4FP       0.029450
     27 H121         6.6390     1.3810    -2.0950 hc         1 4FP       0.048200
     28 H122         5.0890     2.1350    -1.7000 hc         1 4FP       0.048200
     29 H13          3.9780    -0.0000    -2.1420 ha         1 4FP       0.139000
     30 H14          1.4960    -0.0010    -2.1460 ha         1 4FP       0.144000
@<TRIPOS>BOND
     1     1     2 1
     2     2     3 ar
     3     2    14 ar
     4     3     4 ar
     5     3    15 1
     6     4     5 ar
     7     4    16 1
     8     5     6 1
     9     5    13 ar
    10     6     7 1
    11     6    17 1
    12     6    18 1
    13     7    12 1
    14     7     8 1
    15     7    19 1
    16     8     9 1
    17     8    20 1
    18     8    21 1
    19     9    10 1
    20     9    22 1
    21     9    23 1
    22    10    11 1
    23    10    24 1
    24    11    12 1
    25    11    25 1
    26    11    26 1
    27    12    27 1
    28    12    28 1
    29    13    14 ar
    30    13    29 1
    31    14    30 1
@<TRIPOS>SUBSTRUCTURE
     1 4FP         1 TEMP              0 ****  ****    0 ROOT
