@<TRIPOS>MOLECULE
4FR
   80    85     1     0     0
SMALL
bcc


@<TRIPOS>ATOM
      1 C31          0.0000     0.0000     0.0000 ca         1 4FR      -0.083000
      2 C30          1.3840     0.0000     0.0000 ca         1 4FR      -0.007000
      3 C28          1.3970    -0.0010     2.4010 cp         1 4FR       0.104000
      4 C23          3.0530     1.0170     3.9590 ca         1 4FR      -0.076000
      5 C22          2.1440    -0.0010     3.6820 cp         1 4FR      -0.065000
      6 C17          6.2210     3.5720     5.0910 cc         1 4FR       0.461900
      7 C20          2.6330    -1.0170     5.8050 ca         1 4FR      -0.013600
      8 C12          5.8920     3.5600     6.5120 ca         1 4FR      -0.438200
      9 C13          6.3300     4.2750     7.6270 ca         1 4FR       0.548200
     10 C11          4.9020     2.5660     6.6790 ca         1 4FR      -0.105200
     11 C10          4.4020     2.3410     7.9580 ca         1 4FR      -0.350300
     12 C9           4.8920     3.0970     9.0090 ca         1 4FR       0.540200
     13 O40          5.8980     5.9570    15.6330 o          1 4FR      -0.655100
     14 N42          6.1510     7.6530    14.2210 ns         1 4FR      -0.198900
     15 C43          6.5290     8.5590    15.3080 c3         1 4FR       0.095700
     16 C45          7.3870     9.6980    14.7500 c3         1 4FR      -0.126900
     17 C46          7.7270    10.6740    15.8790 c3         1 4FR       0.185300
     18 N47          6.4870    11.2080    16.4570 n3         1 4FR      -0.541600
     19 C48          6.7760    12.2510    17.4490 c3         1 4FR       0.186100
     20 C49          5.6700    10.1380    17.0410 c3         1 4FR       0.185300
     21 C44          5.2670     9.1460    15.9470 c3         1 4FR      -0.126900
     22 C50          5.4730     5.4540    13.3940 ca         1 4FR      -0.129600
     23 C55          5.4220     5.9220    12.0780 ca         1 4FR      -0.101000
     24 C56          5.0660     5.0690    11.0570 ca         1 4FR      -0.093000
     25 C57          4.7590     3.7420    11.3310 ca         1 4FR      -0.022400
     26 C52          4.8080     3.2680    12.6430 ca         1 4FR       0.106100
     27 O53          4.5070     1.9690    12.9090 os         1 4FR      -0.325900
     28 C54          4.5790     1.5520    14.2750 c3         1 4FR       0.246700
     29 C51          5.1680     4.1170    13.6700 ca         1 4FR      -0.122000
     30 N8           4.4010     2.8820    10.2940 nu         1 4FR      -0.275300
     31 N14          5.8260     4.0250     8.8160 nb         1 4FR      -0.656000
     32 N16          5.4810     2.6740     4.5040 nd         1 4FR      -0.664100
     33 N15          4.6650     2.0330     5.4420 na         1 4FR       0.571800
     34 C18          3.7490     1.0110     5.1590 ca         1 4FR      -0.078200
     35 C19          3.5370    -0.0060     6.0800 ca         1 4FR      -0.110000
     36 Cl           2.3720    -2.2840     6.9620 cl         1 4FR       0.007600
     37 C21          1.9360    -1.0180     4.6120 ca         1 4FR      -0.098000
     38 C33         -0.0090    -0.0000     2.4020 ca         1 4FR      -0.237600
     39 C34         -0.7520     0.0010     3.6780 c          1 4FR       0.346700
     40 O35         -0.1540     0.1290     4.7290 o          1 4FR      -0.416100
     41 N36         -2.0920    -0.1410     3.6790 nz         1 4FR       0.195600
     42 C29          2.0830     0.0000     1.1910 ca         1 4FR      -0.086000
     43 C32         -0.6980    -0.0010     1.1900 ca         1 4FR      -0.082000
     44 H31         -0.5380    -0.0000    -0.9400 ha         1 4FR       0.128000
     45 H30          1.9230     0.0000    -0.9400 ha         1 4FR       0.127000
     46 H26          6.9230     5.5020     4.5310 hc         1 4FR       0.020367
     47 H26A         8.2000     4.3280     4.8800 hc         1 4FR       0.020367
     48 H26B         7.2880     4.2210     3.3670 hc         1 4FR       0.020367
     49 H23          3.1490     1.8570     3.2810 ha         1 4FR       0.133000
     50 H13          7.0900     5.0400     7.5130 h4         1 4FR      -0.017900
     51 H10          3.7970     1.4650     8.1570 ha         1 4FR       0.127000
     52 HN42         6.1430     7.9820    13.2750 hn         1 4FR       0.187500
     53 H43          7.0940     8.0170    16.0570 h1         1 4FR       0.039700
     54 H45          7.9650     9.6340    13.8360 hc         1 4FR       0.045700
     55 H45A         7.8630     8.9710    15.3970 hc         1 4FR       0.045700
     56 H46          8.2870    10.1530    16.6470 h1         1 4FR       0.006700
     57 H46A         8.3200    11.4890    15.4830 h1         1 4FR       0.006700
     58 H48          7.3160    11.8180    18.2820 h1         1 4FR       0.001033
     59 H48A         7.3780    13.0270    16.9930 h1         1 4FR       0.001033
     60 H48B         5.8460    12.6780    17.8050 h1         1 4FR       0.001033
     61 H49          6.2430     9.6220    17.8010 h1         1 4FR       0.006700
     62 H49A         4.7780    10.5670    17.4830 h1         1 4FR       0.006700
     63 H44          4.6860     9.6600    15.1900 hc         1 4FR       0.045700
     64 H44A         4.6790     8.3480    16.3820 hc         1 4FR       0.045700
     65 H55          5.6610     6.9560    11.8620 ha         1 4FR       0.107000
     66 H56          5.0270     5.4340    10.0370 ha         1 4FR       0.141000
     67 H54          4.3150     0.5040    14.3460 h1         1 4FR       0.003367
     68 H54A         3.8890     2.1400    14.8680 h1         1 4FR       0.003367
     69 H54B         5.5870     1.6970    14.6440 h1         1 4FR       0.003367
     70 H51          5.2070     3.7510    14.6890 ha         1 4FR       0.147000
     71 HN8          3.7640     2.1290    10.4650 hn         1 4FR       0.292800
     72 H19          4.0810    -0.0090     7.0170 ha         1 4FR       0.143000
     73 H21          1.2290    -1.8110     4.4000 ha         1 4FR       0.104000
     74 HN36        -2.4230    -0.1720     4.6230 hn         1 4FR       0.245800
     75 HN3A        -2.3380    -0.9900     3.2110 hn         1 4FR       0.245800
     76 H29          3.1660    -0.0000     1.1820 ha         1 4FR       0.142000
     77 H32         -1.7820    -0.0010     1.1820 ha         1 4FR       0.082000
     78 H363        -2.5100     0.6380     3.2100 hn         1 4FR       0.245800
     79 C26          7.2290     4.4690     4.4200 c3         1 4FR       0.005600
     80 C41          5.8530     6.3660    14.4890 c          1 4FR       0.596700
@<TRIPOS>BOND
     1     1     2 ar  
     2     1    43 ar  
     3     1    44 1   
     4     2    42 ar  
     5     2    45 1   
     6     3     5 1   
     7     3    38 ar  
     8     3    42 ar  
     9     4     5 ar  
    10     4    34 ar  
    11     4    49 1   
    12     5    37 ar  
    13     6     8 1   
    14     6    32 2   
    15     6    79 1   
    16     7    35 ar  
    17     7    36 1   
    18     7    37 ar  
    19     8     9 ar  
    20     8    10 ar  
    21     9    31 ar  
    22     9    50 1   
    23    10    11 ar  
    24    10    33 1   
    25    11    12 ar  
    26    11    51 1   
    27    12    30 1   
    28    12    31 ar  
    29    13    80 2   
    30    14    15 1   
    31    14    52 1   
    32    14    80 1   
    33    15    16 1   
    34    15    21 1   
    35    15    53 1   
    36    16    17 1   
    37    16    54 1   
    38    16    55 1   
    39    17    18 1   
    40    17    56 1   
    41    17    57 1   
    42    18    19 1   
    43    18    20 1   
    44    19    58 1   
    45    19    59 1   
    46    19    60 1   
    47    20    21 1   
    48    20    61 1   
    49    20    62 1   
    50    21    63 1   
    51    21    64 1   
    52    22    23 ar  
    53    22    29 ar  
    54    22    80 1   
    55    23    24 ar  
    56    23    65 1   
    57    24    25 ar  
    58    24    66 1   
    59    25    26 ar  
    60    25    30 1   
    61    26    27 1   
    62    26    29 ar  
    63    27    28 1   
    64    28    67 1   
    65    28    68 1   
    66    28    69 1   
    67    29    70 1   
    68    30    71 1   
    69    32    33 1   
    70    33    34 1   
    71    34    35 ar  
    72    35    72 1   
    73    37    73 1   
    74    38    39 1   
    75    38    43 ar  
    76    39    40 2   
    77    39    41 1   
    78    41    74 1   
    79    41    75 1   
    80    41    78 1   
    81    42    76 1   
    82    43    77 1   
    83    46    79 1   
    84    47    79 1   
    85    48    79 1   
@<TRIPOS>SUBSTRUCTURE
     1 4FR         1 TEMP              0 ****  ****    0 ROOT
