@<TRIPOS>MOLECULE
molecule
   19    20     1     0     0
SMALL
bcc


@<TRIPOS>ATOM
      1 C1           0.0000     0.0000     0.0000 ca         1 4FS       0.419200
      2 C5           1.1940    -0.0010     4.7760 ca         1 4FS      -0.126000
      3 C3          -0.8340     0.0000     3.4970 ca         1 4FS      -0.161300
      4 C6           1.9550     0.0000     3.6470 ca         1 4FS      -0.113000
      5 C            1.4010     0.0000     0.0000 ca         1 4FS       0.037300
      6 C8           2.0850     0.0000     1.2000 ca         1 4FS      -0.102000
      7 C7           1.3310     0.0000     2.3890 ca         1 4FS      -0.149300
      8 C2          -0.0830     0.0000     2.3090 ca         1 4FS       0.411600
      9 N1          -0.6860     0.0050     1.1150 nb         1 4FS      -0.679000
     10 C4          -0.1970     0.0000     4.6990 ca         1 4FS      -0.123000
     11 H1          -0.5280    -0.0040    -0.9460 h4         1 4FS       0.027100
     12 H2           1.6750    -0.0010     5.7460 ha         1 4FS       0.130000
     13 H3          -1.9170     0.0010     3.4550 ha         1 4FS       0.148000
     14 H4           3.0360    -0.0010     3.7200 ha         1 4FS       0.133000
     15 H5           2.3570    -0.8650    -1.6390 hn         1 4FS       0.429800
     16 H6           2.3560     0.8680    -1.6390 hn         1 4FS       0.429800
     17 H7           3.1680     0.0000     1.2260 ha         1 4FS       0.145000
     18 H8          -0.7810    -0.0010     5.6120 ha         1 4FS       0.132000
     19 N            2.1030     0.0010    -1.2080 nv         1 4FS      -0.987200
@<TRIPOS>BOND
     1     9     1 ar
     2     9     8 ar
     3     3     8 ar
     4     3    10 ar
     5     1     5 ar
     6     8     7 ar
     7    10     2 ar
     8     5    19 1
     9     5     6 ar
    10     7     6 ar
    11     7     4 ar
    12     2     4 ar
    13     1    11 1
    14     2    12 1
    15     3    13 1
    16     4    14 1
    17    19    15 1
    18    19    16 1
    19     6    17 1
    20    10    18 1
@<TRIPOS>SUBSTRUCTURE
     1 4FS         1 TEMP              0 ****  ****    0 ROOT
