@<TRIPOS>MOLECULE
molecule
   16    17     1     0     0
SMALL
bcc


@<TRIPOS>ATOM
      1 C4           0.0000     0.0000     0.0000 ca         1 4FT       0.373700
      2 C5           1.4050     0.0000     0.0000 ca         1 4FT      -0.141300
      3 C6           2.0660     0.0000     1.2590 ca         1 4FT      -0.141300
      4 C7           3.4660     0.0000     1.3030 ca         1 4FT      -0.106000
      5 C8           4.1720     0.0000     0.1380 ca         1 4FT      -0.113000
      6 C9           3.5240     0.0000    -1.0970 ca         1 4FT      -0.113000
      7 C10          2.1640     0.0000    -1.1780 ca         1 4FT      -0.106000
      8 N3          -0.6360     0.0050     1.1510 nb         1 4FT      -0.324500
      9 N2          -0.0410     0.0050     2.2850 nb         1 4FT      -0.324500
     10 C1           1.2680     0.0000     2.4150 ca         1 4FT       0.373700
     11 H1          -0.5510     0.0000    -0.9330 h4         1 4FT       0.035100
     12 H2           3.9830     0.0000     2.2560 ha         1 4FT       0.141000
     13 H3           5.2550     0.0000     0.1710 ha         1 4FT       0.136000
     14 H4           4.1120     0.0000    -2.0070 ha         1 4FT       0.136000
     15 H5           1.6730     0.0000    -2.1440 ha         1 4FT       0.141000
     16 H6           1.7230     0.0000     3.3990 h4         1 4FT       0.035100
@<TRIPOS>BOND
     1     4     5 ar  
     2     4     3 ar  
     3     5     6 ar  
     4    10     3 ar  
     5    10     9 ar  
     6     3     2 ar  
     7     9     8 ar  
     8     6     7 ar  
     9     2     7 ar  
    10     2     1 ar  
    11     8     1 ar  
    12     1    11 1   
    13     4    12 1   
    14     5    13 1   
    15     6    14 1   
    16     7    15 1   
    17    10    16 1   
@<TRIPOS>SUBSTRUCTURE
     1 4FT         1 TEMP              0 ****  ****    0 ROOT
