@<TRIPOS>MOLECULE
4FT
   16    17     1     0     0
SMALL
bcc


@<TRIPOS>ATOM
      1 C4         -0.0160    0.0020    0.0290 ca        1 4FT      0.363200
      2 C5          1.4200    0.0010   -0.0070 ca        1 4FT     -0.132300
      3 C6          2.0800    0.0010    1.2500 ca        1 4FT     -0.132300
      4 C7          3.4940    0.0000    1.2980 ca        1 4FT     -0.106000
      5 C8          4.2160   -0.0010    0.1260 ca        1 4FT     -0.115000
      6 C9          3.5590   -0.0010   -1.1270 ca        1 4FT     -0.115000
      7 C10         2.1830   -0.0000   -1.1980 ca        1 4FT     -0.106000
      8 N3         -0.7060    0.0030    1.1760 nb        1 4FT     -0.324000
      9 N2         -0.1010    0.0030    2.3280 nb        1 4FT     -0.324000
     10 C1          1.2350    0.0020    2.4120 ca        1 4FT      0.363200
     11 H1         -0.5980    0.0020   -0.9080 h4        1 4FT      0.032100
     12 H2          3.9970    0.0000    2.2770 ha        1 4FT      0.142000
     13 H3          5.3170   -0.0010    0.1500 ha        1 4FT      0.140000
     14 H4          4.1640   -0.0020   -2.0460 ha        1 4FT      0.140000
     15 H5          1.6640   -0.0000   -2.1670 ha        1 4FT      0.142000
     16 H6          1.6750    0.0020    3.4230 h4        1 4FT      0.032100
@<TRIPOS>BOND
     1    1    2 ar  
     2    1    8 ar  
     3    1   11 1   
     4    2    3 ar  
     5    2    7 ar  
     6    3    4 ar  
     7    3   10 ar  
     8    4    5 ar  
     9    4   12 1   
    10    5    6 ar  
    11    5   13 1   
    12    6    7 ar  
    13    6   14 1   
    14    7   15 1   
    15    8    9 ar  
    16    9   10 ar  
    17   10   16 1   
@<TRIPOS>SUBSTRUCTURE
     1 4FT         1 TEMP              0 ****  ****    0 ROOT
