@<TRIPOS>MOLECULE
molecule
   22    22     1     0     0
SMALL
bcc


@<TRIPOS>ATOM
      1 C7           0.0000     0.0000     0.0000 c          1 4FU       0.918600
      2 O7           1.2080     0.0000     0.0000 o          1 4FU      -0.869800
      3 C8          -0.7540     0.0000     1.3050 c3         1 4FU      -0.142700
      4 C9          -1.6340     1.2490     1.3860 c3         1 4FU      -0.060900
      5 C11         -0.7550     2.4980     1.3050 c3         1 4FU      -0.075900
      6 C12          0.2400     2.4980     2.4680 c3         1 4FU      -0.075900
      7 C13          1.1200     1.2490     2.3860 c3         1 4FU      -0.060900
      8 C14          0.2400    -0.0000     2.4680 c3         1 4FU      -0.142700
      9 C15          1.1070    -1.2300     2.3880 c          1 4FU       0.918600
     10 OAB          0.9460    -2.0260     1.4920 o          1 4FU      -0.869800
     11 O1          -0.6710     0.0050    -1.1630 o          1 4FU      -0.869800
     12 H8          -1.3780    -0.8830     1.3660 hc         1 4FU       0.019200
     13 H9          -2.1730     1.2480     2.3260 hc         1 4FU       0.033700
     14 HAI         -2.3360     1.2490     0.5610 hc         1 4FU       0.033700
     15 H112        -1.3790     3.3820     1.3660 hc         1 4FU       0.006950
     16 H111        -0.2130     2.4970     0.3680 hc         1 4FU       0.006950
     17 HAG          0.8630     3.3820     2.4080 hc         1 4FU       0.006950
     18 H12         -0.3030     2.4960     3.4060 hc         1 4FU       0.006950
     19 HAL          1.8220     1.2500     3.2120 hc         1 4FU       0.033700
     20 HAK          1.6590     1.2500     1.4470 hc         1 4FU       0.033700
     21 H14         -0.3040     0.0040     3.4050 hc         1 4FU       0.019200
     22 O2           2.0570    -1.4430     3.3110 o          1 4FU      -0.869800
@<TRIPOS>BOND
     1     5     4 1   
     2     5     6 1   
     3     4     3 1   
     4     6     7 1   
     5    10     9 1   
     6     3     1 1   
     7     3     8 1   
     8     1     2 1   
     9     9     8 1   
    10     7     8 1   
    11     1    11 1   
    12     3    12 1   
    13     4    13 1   
    14     4    14 1   
    15     5    15 1   
    16     5    16 1   
    17     6    17 1   
    18     6    18 1   
    19     7    19 1   
    20     7    20 1   
    21     8    21 1   
    22     9    22 1   
@<TRIPOS>SUBSTRUCTURE
     1 4FU         1 TEMP              0 ****  ****    0 ROOT
