@<TRIPOS>MOLECULE
4FU
   22    22     1     0     0
SMALL
bcc


@<TRIPOS>ATOM
      1 C7          0.0240    0.1460   -0.2760 c         1 4FU      0.925100
      2 O7          0.9780    0.9490   -0.5070 o         1 4FU     -0.876300
      3 C8         -0.6340    0.0410    1.1190 c3        1 4FU     -0.137700
      4 C9         -1.5210    1.2780    1.2910 c3        1 4FU     -0.059400
      5 C11        -0.6850    2.5300    1.4800 c3        1 4FU     -0.066900
      6 C12         0.2790    2.4000    2.6420 c3        1 4FU     -0.066900
      7 C13         1.1270    1.1470    2.5010 c3        1 4FU     -0.059400
      8 C14         0.2340   -0.0720    2.3680 c3        1 4FU     -0.137700
      9 C15         0.9850   -1.3980    2.5740 c         1 4FU      0.925100
     10 OAB         0.3070   -2.4710    2.6090 o         1 4FU     -0.876300
     11 O1         -0.5090   -0.5290   -1.2120 o         1 4FU     -0.876300
     12 H8         -1.2850   -0.8770    1.0890 hc        1 4FU      0.022200
     13 H9         -2.1690    1.3980    0.3840 hc        1 4FU      0.028450
     14 HAI        -2.1990    1.1400    2.1750 hc        1 4FU      0.028450
     15 H112       -1.3540    3.4170    1.6380 hc        1 4FU      0.005950
     16 H111       -0.0890    2.6920    0.5390 hc        1 4FU      0.005950
     17 HAG        -0.2940    2.3650    3.6070 hc        1 4FU      0.005950
     18 H12         0.9380    3.3070    2.6830 hc        1 4FU      0.005950
     19 HAL         1.7970    1.0340    3.3900 hc        1 4FU      0.028450
     20 HAK         1.7680    1.2170    1.5810 hc        1 4FU      0.028450
     21 H14        -0.4870   -0.0530    3.2450 hc        1 4FU      0.022200
     22 O2          2.2270   -1.3860    2.8320 o         1 4FU     -0.876300
@<TRIPOS>BOND
     1    1    2 1   
     2    1    3 1   
     3    1   11 1   
     4    3    4 1   
     5    3    8 1   
     6    3   12 1   
     7    4    5 1   
     8    4   13 1   
     9    4   14 1   
    10    5    6 1   
    11    5   15 1   
    12    5   16 1   
    13    6    7 1   
    14    6   17 1   
    15    6   18 1   
    16    7    8 1   
    17    7   19 1   
    18    7   20 1   
    19    8    9 1   
    20    8   21 1   
    21    9   10 1   
    22    9   22 1   
@<TRIPOS>SUBSTRUCTURE
     1 4FU         1 TEMP              0 ****  ****    0 ROOT
