@<TRIPOS>MOLECULE
4FX
   35    36     1     0     0
SMALL
bcc


@<TRIPOS>ATOM
      1 C6           0.0000     0.0000     0.0000 ca         1 4FX      -0.136000
      2 C5           1.3820     0.0000     0.0000 ca         1 4FX      -0.025000
      3 C13         -2.6920     0.7990     7.3100 ca         1 4FX       0.098000
      4 C7          -0.6940    -0.0010     1.1960 ca         1 4FX      -0.038000
      5 C4           2.0740     0.0000     1.1960 ca         1 4FX      -0.203000
      6 C12         -2.0560     0.5490     6.1230 ca         1 4FX      -0.316300
      7 C15         -2.0600     3.1140     7.0700 ca         1 4FX       0.505200
      8 C14         -2.7010     2.1130     7.8020 ca         1 4FX      -0.461900
      9 C8          -0.0070    -0.0070     2.3940 ca         1 4FX      -0.195300
     10 C3           1.3810    -0.0010     2.3970 ca         1 4FX       0.172100
     11 C11         -1.4410     1.5990     5.4440 ca         1 4FX       0.557200
     12 C9          -0.7640    -0.0080     3.6970 c3         1 4FX       0.215100
     13 N16         -1.4650     2.8330     5.9300 nb         1 4FX      -0.633000
     14 N18         -3.3830     3.6970     9.5360 nz         1 4FX       0.203600
     15 N10         -0.7970     1.3510     4.2440 nu         1 4FX      -0.388900
     16 O19         -3.9350     1.5520     9.7020 o          1 4FX      -0.464100
     17 O2           2.0590    -0.0020     3.5750 os         1 4FX      -0.322900
     18 H1          -0.5410     0.0030    -0.9390 ha         1 4FX       0.117000
     19 H2           1.9230     0.0010    -0.9380 ha         1 4FX       0.111000
     20 H3          -3.1790    -0.0000     7.8560 ha         1 4FX       0.132000
     21 H4          -1.7770    -0.0030     1.1940 ha         1 4FX       0.107000
     22 H5           3.1570     0.0020     1.1960 ha         1 4FX       0.130000
     23 H6          -2.0310    -0.4540     5.7170 ha         1 4FX       0.149000
     24 H7          -2.0610     4.1330     7.4390 h4         1 4FX      -0.053900
     25 H8           3.8980    -0.0080     4.5030 h1         1 4FX       0.004700
     26 H9           3.8200    -0.8830     2.9680 h1         1 4FX       0.004700
     27 H10          3.8200     0.8860     2.9790 h1         1 4FX       0.004700
     28 H11         -1.7760    -0.3530     3.5270 h1         1 4FX       0.035700
     29 H12         -0.2710    -0.6680     4.4010 h1         1 4FX       0.035700
     30 H13         -3.8270     4.2960     8.8680 hn         1 4FX       0.242133
     31 H14         -3.8830     3.7340    10.4020 hn         1 4FX       0.242133
     32 H15         -0.3740     2.1040     3.7380 hn         1 4FX       0.313800
     33 C1           3.4860    -0.0020     3.5020 c3         1 4FX       0.246700
     34 H183        -2.4450     4.0100     9.6930 hn         1 4FX       0.242133
     35 C17         -3.3800     2.4320     9.0720 c          1 4FX       0.367700
@<TRIPOS>BOND
     1     1     2 ar  
     2     1     4 ar  
     3     1    18 1   
     4     2     5 ar  
     5     2    19 1   
     6     3     6 ar  
     7     3     8 ar  
     8     3    20 1   
     9     4     9 ar  
    10     4    21 1   
    11     5    10 ar  
    12     5    22 1   
    13     6    11 ar  
    14     6    23 1   
    15     7     8 ar  
    16     7    13 ar  
    17     7    24 1   
    18     8    35 1   
    19     9    10 ar  
    20     9    12 1   
    21    10    17 1   
    22    11    13 ar  
    23    11    15 1   
    24    12    15 1   
    25    12    28 1   
    26    12    29 1   
    27    14    30 1   
    28    14    31 1   
    29    14    34 1   
    30    14    35 1   
    31    15    32 1   
    32    16    35 2   
    33    17    33 1   
    34    25    33 1   
    35    26    33 1   
    36    27    33 1   
@<TRIPOS>SUBSTRUCTURE
     1 4FX         1 TEMP              0 ****  ****    0 ROOT
