@<TRIPOS>MOLECULE
molecule
   35    36     1     0     0
SMALL
bcc


@<TRIPOS>ATOM
      1 C6           0.0000     0.0000     0.0000 ca         1 4FX      -0.162000
      2 C5           1.3820     0.0000     0.0000 ca         1 4FX      -0.061000
      3 C13         -2.6920     0.7990     7.3100 ca         1 4FX       0.041000
      4 C7          -0.6940    -0.0010     1.1960 ca         1 4FX      -0.070000
      5 C4           2.0740     0.0000     1.1960 ca         1 4FX      -0.217000
      6 C12         -2.0560     0.5490     6.1230 ca         1 4FX      -0.320300
      7 C15         -2.0600     3.1140     7.0700 ca         1 4FX       0.515200
      8 C14         -2.7010     2.1130     7.8020 ca         1 4FX      -0.428900
      9 C8          -0.0070    -0.0070     2.3940 ca         1 4FX      -0.174300
     10 C3           1.3810    -0.0010     2.3970 ca         1 4FX       0.160100
     11 C11         -1.4410     1.5990     5.4440 ca         1 4FX       0.756200
     12 C9          -0.7640    -0.0080     3.6970 c3         1 4FX       0.284100
     13 N16         -1.4650     2.8330     5.9300 nb         1 4FX      -0.745000
     14 N18         -3.3830     3.6970     9.5360 nz         1 4FX      -0.676400
     15 N10         -0.7970     1.3510     4.2440 nu         1 4FX      -0.840900
     16 O19         -3.9350     1.5520     9.7020 o          1 4FX      -0.444100
     17 O2           2.0590    -0.0020     3.5750 os         1 4FX      -0.338900
     18 H1          -0.5410     0.0030    -0.9390 ha         1 4FX       0.145000
     19 H2           1.9230     0.0010    -0.9380 ha         1 4FX       0.145000
     20 H3          -3.1790    -0.0000     7.8560 ha         1 4FX       0.172000
     21 H4          -1.7770    -0.0030     1.1940 ha         1 4FX       0.139000
     22 H5           3.1570     0.0020     1.1960 ha         1 4FX       0.148000
     23 H6          -2.0310    -0.4540     5.7170 ha         1 4FX       0.172000
     24 H7          -2.0610     4.1330     7.4390 h4         1 4FX      -0.004900
     25 H8           3.8980    -0.0080     4.5030 h1         1 4FX       0.049367
     26 H9           3.8200    -0.8830     2.9680 h1         1 4FX       0.049367
     27 H10          3.8200     0.8860     2.9790 h1         1 4FX       0.049367
     28 H11         -1.7760    -0.3530     3.5270 h1         1 4FX       0.063200
     29 H12         -0.2710    -0.6680     4.4010 h1         1 4FX       0.063200
     30 H13         -3.8270     4.2960     8.8680 hn         1 4FX       0.473467
     31 H14         -3.8830     3.7340    10.4020 hn         1 4FX       0.473467
     32 H15         -0.3740     2.1040     3.7380 hn         1 4FX       0.472800
     33 C1           3.4860    -0.0020     3.5020 c3         1 4FX       0.126700
     34 H183        -2.4450     4.0100     9.6930 hn         1 4FX       0.473467
     35 C17         -3.3800     2.4320     9.0720 c          1 4FX       0.513700
@<TRIPOS>BOND
     1     2     1 ar
     2     2     5 ar
     3     1     4 ar
     4     5    10 ar
     5     4     9 ar
     6    10     9 ar
     7    10    17 1
     8     9    12 1
     9    33    17 1
    10    12    15 1
    11    15    11 1
    12     6    11 ar
    13     6     3 ar
    14    11    13 ar
    15     3     8 ar
    16    13     7 ar
    17     8     7 ar
    18     8    35 1
    19    35    16 2
    20    35    14 1
    21     1    18 1
    22     2    19 1
    23     3    20 1
    24     4    21 1
    25     5    22 1
    26     6    23 1
    27     7    24 1
    28    33    25 1
    29    33    26 1
    30    33    27 1
    31    12    28 1
    32    12    29 1
    33    14    30 1
    34    14    31 1
    35    15    32 1
    36    34    14 1
@<TRIPOS>SUBSTRUCTURE
     1 4FX         1 TEMP              0 ****  ****    0 ROOT
