@<TRIPOS>MOLECULE
4FY
   36    38     1     0     0
SMALL
bcc


@<TRIPOS>ATOM
      1 C13          0.0000     0.0000     0.0000 ca         1 4FY      -0.108000
      2 C14          1.3790     0.0000     0.0000 ca         1 4FY      -0.100000
      3 C2          -4.0190    -1.6170    -3.2300 c3         1 4FY       0.196900
      4 C15          2.0740     0.0000     1.1960 ca         1 4FY      -0.132000
      5 C16          1.3920     0.0000     2.4000 ca         1 4FY      -0.100000
      6 C17          0.0120     0.0010     2.4140 ca         1 4FY      -0.108000
      7 C12         -0.6950     0.0060     1.2090 ca         1 4FY      -0.061500
      8 C9          -2.1740     0.0070     1.2170 cc         1 4FY       0.156000
      9 N10         -2.9400     0.0000     0.1480 nd         1 4FY      -0.604000
     10 N8          -2.9550     0.0060     2.3310 na         1 4FY       0.311100
     11 C7          -4.2630     0.0060     1.9100 cc         1 4FY      -0.325200
     12 C20         -5.4620     0.0070     2.7600 c          1 4FY       0.975200
     13 O22         -6.5660     0.0080     2.2530 o          1 4FY      -0.847300
     14 O21         -5.3360     0.0080     4.1040 o          1 4FY      -0.847300
     15 C11         -4.2260     0.0020     0.5200 cd         1 4FY       0.215800
     16 C18         -5.3970    -0.0020    -0.3850 c          1 4FY       0.520600
     17 O19         -6.5170     0.1150     0.0710 o          1 4FY      -0.560100
     18 N3          -5.2210    -0.1340    -1.7140 n          1 4FY      -0.173800
     19 C1          -3.8920    -0.4230    -2.2770 c3         1 4FY      -0.017500
     20 C5          -6.3520     0.0050    -2.6460 c3         1 4FY      -0.017500
     21 C6          -6.3590    -1.2110    -3.5810 c3         1 4FY       0.196900
     22 O4          -5.0650    -1.3580    -4.1710 os         1 4FY      -0.426600
     23 H11C        -3.5330     0.4420    -2.8230 h1         1 4FY       0.047200
     24 H12C        -3.2040    -0.6680    -1.4770 h1         1 4FY       0.047200
     25 H61C        -6.6010    -2.1010    -3.0140 h1         1 4FY       0.005200
     26 H62C        -7.0960    -1.0600    -4.3610 h1         1 4FY       0.005200
     27 H51C        -7.2800     0.0400    -2.0880 h1         1 4FY       0.047200
     28 H52C        -6.2340     0.9110    -3.2270 h1         1 4FY       0.047200
     29 H8          -2.6400     0.1430     3.2710 hn         1 4FY       0.136700
     30 H13         -0.5420     0.0640    -0.9360 ha         1 4FY       0.114000
     31 H17         -0.5200    -0.0760     3.3540 ha         1 4FY       0.114000
     32 H14          1.9340     0.0070    -0.9300 ha         1 4FY       0.094500
     33 H15          3.1580    -0.0000     1.1910 ha         1 4FY       0.093000
     34 H16          1.9420    -0.0010     3.3330 ha         1 4FY       0.094500
     35 H21C        -3.0850    -1.7570    -3.7600 h1         1 4FY       0.005200
     36 H22C        -4.2570    -2.5080    -2.6620 h1         1 4FY       0.005200
@<TRIPOS>BOND
     1     1     2 ar  
     2     1     7 ar  
     3     1    30 1   
     4     2     4 ar  
     5     2    32 1   
     6     3    19 1   
     7     3    22 1   
     8     3    35 1   
     9     3    36 1   
    10     4     5 ar  
    11     4    33 1   
    12     5     6 ar  
    13     5    34 1   
    14     6     7 ar  
    15     6    31 1   
    16     7     8 1   
    17     8     9 2   
    18     8    10 1   
    19     9    15 1   
    20    10    11 1   
    21    10    29 1   
    22    11    12 1   
    23    11    15 2   
    24    12    13 1   
    25    12    14 1   
    26    15    16 1   
    27    16    17 2   
    28    16    18 1   
    29    18    19 1   
    30    18    20 1   
    31    19    23 1   
    32    19    24 1   
    33    20    21 1   
    34    20    27 1   
    35    20    28 1   
    36    21    22 1   
    37    21    25 1   
    38    21    26 1   
@<TRIPOS>SUBSTRUCTURE
     1 4FY         1 TEMP              0 ****  ****    0 ROOT
