@<TRIPOS>MOLECULE
molecule
   36    38     1     0     0
SMALL
bcc


@<TRIPOS>ATOM
      1 C13          0.0000     0.0000     0.0000 ca         1 4FY      -0.122000
      2 C14          1.3790     0.0000     0.0000 ca         1 4FY      -0.130500
      3 C2          -4.0190    -1.6170    -3.2300 c3         1 4FY       0.117900
      4 C15          2.0740     0.0000     1.1960 ca         1 4FY      -0.149000
      5 C16          1.3920     0.0000     2.4000 ca         1 4FY      -0.130500
      6 C17          0.0120     0.0010     2.4140 ca         1 4FY      -0.122000
      7 C12         -0.6950     0.0060     1.2090 ca         1 4FY      -0.075500
      8 C9          -2.1740     0.0070     1.2170 cc         1 4FY       0.384000
      9 N10         -2.9400     0.0000     0.1480 nc         1 4FY      -0.701000
     10 N8          -2.9550     0.0060     2.3310 na         1 4FY      -0.256900
     11 C7          -4.2630     0.0060     1.9100 cd         1 4FY      -0.124200
     12 C20         -5.4620     0.0070     2.7600 c          1 4FY       0.883200
     13 O22         -6.5660     0.0080     2.2530 o          1 4FY      -0.795800
     14 O21         -5.3360     0.0080     4.1040 o          1 4FY      -0.795800
     15 C11         -4.2260     0.0020     0.5200 cc         1 4FY       0.240800
     16 C18         -5.3970    -0.0020    -0.3850 c          1 4FY       0.595600
     17 O19         -6.5170     0.1150     0.0710 o          1 4FY      -0.530100
     18 N3          -5.2210    -0.1340    -1.7140 n          1 4FY      -0.503800
     19 C1          -3.8920    -0.4230    -2.2770 c3         1 4FY       0.063000
     20 C5          -6.3520     0.0050    -2.6460 c3         1 4FY       0.063000
     21 C6          -6.3590    -1.2110    -3.5810 c3         1 4FY       0.117900
     22 O4          -5.0650    -1.3580    -4.1710 os         1 4FY      -0.441600
     23 H11C        -3.5330     0.4420    -2.8230 h1         1 4FY       0.070450
     24 H12C        -3.2040    -0.6680    -1.4770 h1         1 4FY       0.070450
     25 H61C        -6.6010    -2.1010    -3.0140 h1         1 4FY       0.043700
     26 H62C        -7.0960    -1.0600    -4.3610 h1         1 4FY       0.043700
     27 H51C        -7.2800     0.0400    -2.0880 h1         1 4FY       0.070450
     28 H52C        -6.2340     0.9110    -3.2270 h1         1 4FY       0.070450
     29 H8          -2.6400     0.1430     3.2710 hn         1 4FY       0.316700
     30 H13         -0.5420     0.0640    -0.9360 ha         1 4FY       0.140500
     31 H17         -0.5200    -0.0760     3.3540 ha         1 4FY       0.140500
     32 H14          1.9340     0.0070    -0.9300 ha         1 4FY       0.121000
     33 H15          3.1580    -0.0000     1.1910 ha         1 4FY       0.117000
     34 H16          1.9420    -0.0010     3.3330 ha         1 4FY       0.121000
     35 H21C        -3.0850    -1.7570    -3.7600 h1         1 4FY       0.043700
     36 H22C        -4.2570    -2.5080    -2.6620 h1         1 4FY       0.043700
@<TRIPOS>BOND
     1    19     3 1   
     2    19    18 1   
     3     3    22 1   
     4    22    21 1   
     5    21    20 1   
     6    20    18 1   
     7    18    16 1   
     8    16    17 2   
     9    16    15 1   
    10    15     9 1   
    11    15    11 2   
    12     9     8 2   
    13    11    12 1   
    14    11    10 1   
    15    12    13 1   
    16    12    14 1   
    17    10     8 1   
    18     8     7 1   
    19     7     1 ar  
    20     7     6 ar  
    21     1     2 ar  
    22     2     4 ar  
    23     4     5 ar  
    24     5     6 ar  
    25    19    23 1   
    26    19    24 1   
    27     3    35 1   
    28     3    36 1   
    29    21    25 1   
    30    21    26 1   
    31    20    27 1   
    32    20    28 1   
    33    10    29 1   
    34     1    30 1   
    35     6    31 1   
    36     2    32 1   
    37     4    33 1   
    38     5    34 1   
@<TRIPOS>SUBSTRUCTURE
     1 4FY         1 TEMP              0 ****  ****    0 ROOT
