@<TRIPOS>MOLECULE
molecule
   20    20     1     0     0
SMALL
bcc


@<TRIPOS>ATOM
      1 O            0.0000     0.0000     0.0000 o          1 4FZ      -0.477100
      2 N1           3.3900    -0.0020     6.1530 nz         1 4FZ      -0.742600
      3 C2           3.3370    -0.0010     3.6770 ca         1 4FZ      -0.216900
      4 N2           5.3790     0.0050     4.9590 n2         1 4FZ      -0.715100
      5 C3           4.0350     0.0000     2.4680 ca         1 4FZ      -0.113000
      6 C4           3.3470     0.0010     1.2740 ca         1 4FZ      -0.058500
      7 C5           1.9490    -0.0000     1.2740 ca         1 4FZ      -0.137600
      8 C6           1.2120     0.0000     0.0000 c          1 4FZ       0.566500
      9 C7           1.2510    -0.0020     2.4860 ca         1 4FZ      -0.058500
     10 C8           1.9410    -0.0070     3.6780 ca         1 4FZ      -0.113000
     11 HN1          4.0410    -0.0010     6.9130 hn         1 4FZ       0.475133
     12 HN1A         2.8160    -0.8200     6.2070 hn         1 4FZ       0.475133
     13 HN2          5.8810     0.0070     4.0920 hn         1 4FZ       0.484400
     14 H3           5.1190     0.0010     2.4690 ha         1 4FZ       0.129000
     15 H4           3.8890     0.0020     0.3370 ha         1 4FZ       0.174000
     16 H6           1.7540    -0.0010    -0.9380 h4         1 4FZ       0.030200
     17 H7           0.1670    -0.0040     2.4870 ha         1 4FZ       0.174000
     18 H8           1.4010    -0.0080     4.6170 ha         1 4FZ       0.129000
     19 H13          2.8140     0.8150     6.2060 hn         1 4FZ       0.475133
     20 C1           4.0780    -0.0020     4.9590 ce         1 4FZ       0.517800
@<TRIPOS>BOND
     1     1     8 2   
     2    20     2 1   
     3    20     3 1   
     4    20     4 2   
     5     3     5 ar  
     6     3    10 ar  
     7     5     6 ar  
     8     6     7 ar  
     9     7     8 1   
    10     7     9 ar  
    11     9    10 ar  
    12     2    11 1   
    13     2    12 1   
    14     4    13 1   
    15     5    14 1   
    16     6    15 1   
    17     8    16 1   
    18     9    17 1   
    19    10    18 1   
    20    19     2 1   
@<TRIPOS>SUBSTRUCTURE
     1 4FZ         1 TEMP              0 ****  ****    0 ROOT
