@<TRIPOS>MOLECULE
molecule
   39    40     1     0     0
SMALL
bcc


@<TRIPOS>ATOM
      1 C4           0.0000     0.0000     0.0000 ca         1 4G0      -0.078000
      2 C10          7.6750     0.8210     1.1810 ca         1 4G0       0.042000
      3 C5           1.3830     0.0000     0.0000 ca         1 4G0      -0.168000
      4 C3          -0.6930     0.0060     1.1940 ca         1 4G0      -0.182000
      5 C9           6.3300     0.5680     1.1850 ca         1 4G0      -0.322300
      6 C14          1.3900     0.0010     2.3950 ca         1 4G0      -0.191000
      7 C12          7.1500     3.1750     1.1750 ca         1 4G0       0.516200
      8 C11          8.1050     2.1570     1.1790 ca         1 4G0      -0.428900
      9 C6           2.0760     0.0000     1.1960 ca         1 4G0      -0.097300
     10 C2           0.0010     0.0110     2.3980 ca         1 4G0       0.210600
     11 C8           5.4330     1.6340     1.1870 ca         1 4G0       0.754200
     12 C7           3.5840     0.0000     1.1920 c3         1 4G0       0.272100
     13 N2           5.8660     2.8880     1.1840 nb         1 4G0      -0.744000
     14 N3           9.9460     3.7670     1.1780 nz         1 4G0      -0.677400
     15 N1           4.0720     1.3820     1.1910 nu         1 4G0      -0.845900
     16 N           -0.6970     0.0180     3.6080 nh         1 4G0      -0.733000
     17 O           10.3680     1.5860     1.1850 o          1 4G0      -0.443100
     18 H1          -0.5410    -0.0020    -0.9390 ha         1 4G0       0.141000
     19 H2           8.3920     0.0080     1.1820 ha         1 4G0       0.172000
     20 H3           1.9230    -0.0030    -0.9390 ha         1 4G0       0.130000
     21 H4          -1.7760     0.0100     1.1930 ha         1 4G0       0.144000
     22 H5           5.9660    -0.4530     1.1870 ha         1 4G0       0.172000
     23 H6           1.9340     0.0030     3.3320 ha         1 4G0       0.134000
     24 H7           7.4690     4.2110     1.1730 h4         1 4G0      -0.003900
     25 H8          -2.5230    -0.8700     3.1030 h1         1 4G0       0.039700
     26 H9          -2.5220     0.0240     4.6300 h1         1 4G0       0.039700
     27 H10         -2.5230     0.9000     3.0930 h1         1 4G0       0.039700
     28 H11          0.6410     0.9220     4.9380 h1         1 4G0       0.039700
     29 H12          0.6770    -0.8470     4.9270 h1         1 4G0       0.039700
     30 H13         -0.6670     0.0060     5.6990 h1         1 4G0       0.039700
     31 H14          3.9470    -0.5100     2.0760 h1         1 4G0       0.060200
     32 H15          3.9430    -0.5100     0.3070 h1         1 4G0       0.060200
     33 H16         10.9460     3.8040     1.1800 hn         1 4G0       0.474467
     34 H17          9.5940     4.2130     2.0020 hn         1 4G0       0.474467
     35 H18          3.4220     2.1420     1.1780 hn         1 4G0       0.475800
     36 C           -2.1620     0.0180     3.6080 c3         1 4G0       0.228600
     37 C1           0.0360     0.0250     4.8750 c3         1 4G0       0.228600
     38 H33          9.5960     4.2240     0.3600 hn         1 4G0       0.474467
     39 C13          9.5440     2.4800     1.1810 c          1 4G0       0.511700
@<TRIPOS>BOND
     1    36    16 1
     2     4     1 ar
     3     4    10 ar
     4     1     3 ar
     5    16    10 1
     6    16    37 1
     7    10     6 ar
     8     3     9 ar
     9     6     9 ar
    10     9    12 1
    11    12    15 1
    12    15    11 1
    13     5    11 ar
    14     5     2 ar
    15    11    13 ar
    16     2     8 ar
    17    13     7 ar
    18     8     7 ar
    19     8    39 1
    20    39    17 2
    21    39    14 1
    22     1    18 1
    23     2    19 1
    24     3    20 1
    25     4    21 1
    26     5    22 1
    27     6    23 1
    28     7    24 1
    29    36    25 1
    30    36    26 1
    31    36    27 1
    32    37    28 1
    33    37    29 1
    34    37    30 1
    35    12    31 1
    36    12    32 1
    37    14    33 1
    38    14    34 1
    39    15    35 1
    40    38    14 1
@<TRIPOS>SUBSTRUCTURE
     1 4G0         1 TEMP              0 ****  ****    0 ROOT
