@<TRIPOS>MOLECULE
4G0
   39    40     1     0     0
SMALL
bcc


@<TRIPOS>ATOM
      1 C4           0.0000     0.0000     0.0000 ca         1 4G0      -0.040000
      2 C10          7.6750     0.8210     1.1810 ca         1 4G0       0.099000
      3 C5           1.3830     0.0000     0.0000 ca         1 4G0      -0.147000
      4 C3          -0.6930     0.0060     1.1940 ca         1 4G0      -0.166000
      5 C9           6.3300     0.5680     1.1850 ca         1 4G0      -0.318300
      6 C14          1.3900     0.0010     2.3950 ca         1 4G0      -0.178000
      7 C12          7.1500     3.1750     1.1750 ca         1 4G0       0.505200
      8 C11          8.1050     2.1570     1.1790 ca         1 4G0      -0.461900
      9 C6           2.0760     0.0000     1.1960 ca         1 4G0      -0.103300
     10 C2           0.0010     0.0110     2.3980 ca         1 4G0       0.086600
     11 C8           5.4330     1.6340     1.1870 ca         1 4G0       0.557200
     12 C7           3.5840     0.0000     1.1920 c3         1 4G0       0.202100
     13 N2           5.8660     2.8880     1.1840 nb         1 4G0      -0.633000
     14 N3           9.9460     3.7670     1.1780 nz         1 4G0       0.201600
     15 N1           4.0720     1.3820     1.1910 nu         1 4G0      -0.393900
     16 N           -0.6970     0.0180     3.6080 nh         1 4G0      -0.384000
     17 O           10.3680     1.5860     1.1850 o          1 4G0      -0.463100
     18 H1          -0.5410    -0.0020    -0.9390 ha         1 4G0       0.108000
     19 H2           8.3920     0.0080     1.1820 ha         1 4G0       0.133000
     20 H3           1.9230    -0.0030    -0.9390 ha         1 4G0       0.107000
     21 H4          -1.7760     0.0100     1.1930 ha         1 4G0       0.124000
     22 H5           5.9660    -0.4530     1.1870 ha         1 4G0       0.149000
     23 H6           1.9340     0.0030     3.3320 ha         1 4G0       0.118000
     24 H7           7.4690     4.2110     1.1730 h4         1 4G0      -0.053900
     25 H8          -2.5230    -0.8700     3.1030 h1         1 4G0       0.008867
     26 H9          -2.5220     0.0240     4.6300 h1         1 4G0       0.008867
     27 H10         -2.5230     0.9000     3.0930 h1         1 4G0       0.008867
     28 H11          0.6410     0.9220     4.9380 h1         1 4G0       0.008867
     29 H12          0.6770    -0.8470     4.9270 h1         1 4G0       0.008867
     30 H13         -0.6670     0.0060     5.6990 h1         1 4G0       0.008867
     31 H14          3.9470    -0.5100     2.0760 h1         1 4G0       0.032700
     32 H15          3.9430    -0.5100     0.3070 h1         1 4G0       0.032700
     33 H16         10.9460     3.8040     1.1800 hn         1 4G0       0.243133
     34 H17          9.5940     4.2130     2.0020 hn         1 4G0       0.243133
     35 H18          3.4220     2.1420     1.1780 hn         1 4G0       0.315800
     36 C           -2.1620     0.0180     3.6080 c3         1 4G0       0.209600
     37 C1           0.0360     0.0250     4.8750 c3         1 4G0       0.209600
     38 H33          9.5960     4.2240     0.3600 hn         1 4G0       0.243133
     39 C13          9.5440     2.4800     1.1810 c          1 4G0       0.367700
@<TRIPOS>BOND
     1     1     3 ar  
     2     1     4 ar  
     3     1    18 1   
     4     2     5 ar  
     5     2     8 ar  
     6     2    19 1   
     7     3     9 ar  
     8     3    20 1   
     9     4    10 ar  
    10     4    21 1   
    11     5    11 ar  
    12     5    22 1   
    13     6     9 ar  
    14     6    10 ar  
    15     6    23 1   
    16     7     8 ar  
    17     7    13 ar  
    18     7    24 1   
    19     8    39 1   
    20     9    12 1   
    21    10    16 1   
    22    11    13 ar  
    23    11    15 1   
    24    12    15 1   
    25    12    31 1   
    26    12    32 1   
    27    14    33 1   
    28    14    34 1   
    29    14    38 1   
    30    14    39 1   
    31    15    35 1   
    32    16    36 1   
    33    16    37 1   
    34    17    39 2   
    35    25    36 1   
    36    26    36 1   
    37    27    36 1   
    38    28    37 1   
    39    29    37 1   
    40    30    37 1   
@<TRIPOS>SUBSTRUCTURE
     1 4G0         1 TEMP              0 ****  ****    0 ROOT
