@<TRIPOS>MOLECULE
molecule
   24    25     1     0     0
SMALL
bcc


@<TRIPOS>ATOM
      1 O14          0.0000     0.0000     0.0000 o          1 4G2      -0.830300
      2 C12          1.2150     0.0000     0.0000 c          1 4G2       0.807100
      3 O13          1.8890     0.0000     1.1680 o          1 4G2      -0.830300
      4 C10          1.9510    -0.0070    -1.2760 cc         1 4G2       0.317800
      5 C9           1.3960    -0.0130    -2.5240 cd         1 4G2      -0.206900
      6 N8           2.4190    -0.0180    -3.4110 na         1 4G2      -0.300900
      7 C7           3.5840    -0.0140    -2.6970 cd         1 4G2       0.368000
      8 N11          3.2930    -0.0010    -1.4180 nc         1 4G2      -0.619000
      9 C6           4.9480    -0.0180    -3.2700 ca         1 4G2      -0.053500
     10 C1           6.0610    -0.0130    -2.4310 ca         1 4G2      -0.092000
     11 C2           7.3310    -0.0160    -2.9720 ca         1 4G2       0.030400
     12 C3           7.5000    -0.0230    -4.3470 ca         1 4G2      -0.149000
     13 C4           6.3990    -0.0280    -5.1850 ca         1 4G2      -0.124000
     14 C5           5.1250    -0.0310    -4.6540 ca         1 4G2      -0.151000
     15 Cl1          8.7190    -0.0100    -1.9290 cl         1 4G2      -0.127400
     16 C15         -0.0740    -0.0160    -2.8510 c3         1 4G2       0.006200
     17 H8           2.3370    -0.0250    -4.4090 hn         1 4G2       0.273700
     18 H151        -0.5370    -0.8980    -2.4260 hc         1 4G2       0.042700
     19 H152        -0.2050    -0.0210    -3.9260 hc         1 4G2       0.042700
     20 H153        -0.5380     0.8710    -2.4350 hc         1 4G2       0.042700
     21 H1           5.9300    -0.0080    -1.3550 ha         1 4G2       0.184000
     22 H5           4.2640    -0.0340    -5.3110 ha         1 4G2       0.120000
     23 H3           8.4980    -0.0230    -4.7680 ha         1 4G2       0.129000
     24 H4           6.5380    -0.0350    -6.2590 ha         1 4G2       0.122000
@<TRIPOS>BOND
     1     1     2 1
     2     2     3 1
     3     2     4 1
     4     4     5 2
     5     4     8 1
     6     5     6 1
     7     5    16 1
     8     6     7 1
     9     7     8 2
    10     7     9 1
    11     9    10 ar
    12     9    14 ar
    13    10    11 ar
    14    11    12 ar
    15    11    15 1
    16    12    13 ar
    17    13    14 ar
    18     6    17 1
    19    16    18 1
    20    16    19 1
    21    16    20 1
    22    10    21 1
    23    14    22 1
    24    12    23 1
    25    13    24 1
@<TRIPOS>SUBSTRUCTURE
     1 4G2         1 TEMP              0 ****  ****    0 ROOT
