@<TRIPOS>MOLECULE
4G2
   24    25     1     0     0
SMALL
bcc


@<TRIPOS>ATOM
      1 O14        -0.0080   -0.8620   -0.0510 o         1 4G2     -0.818800
      2 C12         1.1600   -0.3880    0.0610 c         1 4G2      0.836100
      3 O13         1.6860   -0.0340    1.1460 o         1 4G2     -0.818800
      4 C10         1.9490   -0.2080   -1.2280 cc        1 4G2      0.299800
      5 C9          1.3750    0.1100   -2.4940 cd        1 4G2     -0.191900
      6 N8          2.4360    0.2010   -3.3950 na        1 4G2     -0.316900
      7 C7          3.6160   -0.0620   -2.6710 cd        1 4G2      0.355000
      8 N11         3.3230   -0.3100   -1.3560 nc        1 4G2     -0.613000
      9 C6          4.9420   -0.0610   -3.2680 ca        1 4G2     -0.053500
     10 C1          6.0720    0.0140   -2.4330 ca        1 4G2     -0.100000
     11 C2          7.3460    0.0200   -3.0010 ca        1 4G2      0.019400
     12 C3          7.5260   -0.0460   -4.3860 ca        1 4G2     -0.153000
     13 C4          6.4030   -0.1250   -5.2060 ca        1 4G2     -0.126000
     14 C5          5.1220   -0.1360   -4.6580 ca        1 4G2     -0.154000
     15 CL1         8.7180    0.1130   -1.9900 cl        1 4G2     -0.119400
     16 C15        -0.0370    0.3070   -2.8450 c3        1 4G2     -0.037800
     17 H8          2.3770    0.4300   -4.3480 hn        1 4G2      0.275700
     18 H151       -0.2430    1.3770   -3.0990 hc        1 4G2      0.052033
     19 H152       -0.6540    0.0110   -1.9510 hc        1 4G2      0.052033
     20 H153       -0.3340   -0.3250   -3.7180 hc        1 4G2      0.052033
     21 H1          5.9430    0.0640   -1.3390 ha        1 4G2      0.183000
     22 H5          4.2590   -0.2180   -5.3330 ha        1 4G2      0.123000
     23 H3          8.5340   -0.0380   -4.8210 ha        1 4G2      0.132000
     24 H4          6.5300   -0.1840   -6.2970 ha        1 4G2      0.121000
@<TRIPOS>BOND
     1    1    2 1   
     2    2    3 1   
     3    2    4 1   
     4    4    5 2   
     5    4    8 1   
     6    5    6 1   
     7    5   16 1   
     8    6    7 1   
     9    6   17 1   
    10    7    8 2   
    11    7    9 1   
    12    9   10 ar  
    13    9   14 ar  
    14   10   11 ar  
    15   10   21 1   
    16   11   12 ar  
    17   11   15 1   
    18   12   13 ar  
    19   12   23 1   
    20   13   14 ar  
    21   13   24 1   
    22   14   22 1   
    23   16   18 1   
    24   16   19 1   
    25   16   20 1   
@<TRIPOS>SUBSTRUCTURE
     1 4G2         1 TEMP              0 ****  ****    0 ROOT
