@<TRIPOS>MOLECULE
4G3
   32    33     1     0     0
SMALL
bcc


@<TRIPOS>ATOM
      1 C8           0.0000     0.0000     0.0000 ca         1 4G3      -0.071000
      2 C2           7.6760     0.8180     1.1790 ca         1 4G3       0.100000
      3 C7           1.3830     0.0000     0.0000 ca         1 4G3      -0.097000
      4 C9          -0.6910     0.0070     1.1960 ca         1 4G3      -0.108000
      5 C3           6.3300     0.5650     1.1840 ca         1 4G3      -0.316300
      6 C11          1.3900     0.0010     2.3950 ca         1 4G3      -0.121000
      7 C12          7.1520     3.1720     1.1730 ca         1 4G3       0.505200
      8 C1           8.1070     2.1530     1.1770 ca         1 4G3      -0.458900
      9 C6           2.0770     0.0000     1.1960 ca         1 4G3      -0.134300
     10 C10          0.0030     0.0130     2.3970 ca         1 4G3       0.136100
     11 C4           5.4350     1.6320     1.1860 ca         1 4G3       0.559200
     12 C5           3.5830    -0.0010     1.1910 c3         1 4G3       0.205100
     13 N2           5.8670     2.8860     1.1830 nb         1 4G3      -0.631000
     14 N            9.9480     3.7610     1.1770 nz         1 4G3       0.202600
     15 N1           4.0730     1.3800     1.1900 nu         1 4G3      -0.404900
     16 O           10.3690     1.5810     1.1820 o          1 4G3      -0.459100
     17 O1          -0.6760     0.0200     3.5750 oh         1 4G3      -0.491100
     18 H1          -0.5410    -0.0020    -0.9380 ha         1 4G3       0.115000
     19 H2           8.3920     0.0050     1.1790 ha         1 4G3       0.133000
     20 H3           1.9230    -0.0030    -0.9390 ha         1 4G3       0.108000
     21 H4          -1.7750     0.0120     1.1960 ha         1 4G3       0.125000
     22 H5           5.9650    -0.4550     1.1850 ha         1 4G3       0.149000
     23 H6           1.9340     0.0030     3.3310 ha         1 4G3       0.117000
     24 H7           7.4720     4.2070     1.1710 h4         1 4G3      -0.052900
     25 H8           3.9410    -0.5120     0.3050 h1         1 4G3       0.034200
     26 H9           3.9470    -0.5120     2.0740 h1         1 4G3       0.034200
     27 H10          9.5960     4.2220     1.9920 hn         1 4G3       0.242800
     28 H11         10.9480     3.8090     1.1720 hn         1 4G3       0.242800
     29 H12          3.4230     2.1410     1.1950 hn         1 4G3       0.314800
     30 H13         -0.7920     0.9090     3.8660 ho         1 4G3       0.408000
     31 HN3          9.6030     4.2220     0.3580 hn         1 4G3       0.242800
     32 C            9.5460     2.4750     1.1780 c          1 4G3       0.369700
@<TRIPOS>BOND
     1     1     3 ar  
     2     1     4 ar  
     3     1    18 1   
     4     2     5 ar  
     5     2     8 ar  
     6     2    19 1   
     7     3     9 ar  
     8     3    20 1   
     9     4    10 ar  
    10     4    21 1   
    11     5    11 ar  
    12     5    22 1   
    13     6     9 ar  
    14     6    10 ar  
    15     6    23 1   
    16     7     8 ar  
    17     7    13 ar  
    18     7    24 1   
    19     8    32 1   
    20     9    12 1   
    21    10    17 1   
    22    11    13 ar  
    23    11    15 1   
    24    12    15 1   
    25    12    25 1   
    26    12    26 1   
    27    14    27 1   
    28    14    28 1   
    29    14    31 1   
    30    14    32 1   
    31    15    29 1   
    32    16    32 2   
    33    17    30 1   
@<TRIPOS>SUBSTRUCTURE
     1 4G3         1 TEMP              0 ****  ****    0 ROOT
