@<TRIPOS>MOLECULE
molecule
   32    33     1     0     0
SMALL
bcc


@<TRIPOS>ATOM
      1 C8           0.0000     0.0000     0.0000 ca         1 4G3      -0.110000
      2 C2           7.6760     0.8180     1.1790 ca         1 4G3       0.043000
      3 C7           1.3830     0.0000     0.0000 ca         1 4G3      -0.116000
      4 C9          -0.6910     0.0070     1.1960 ca         1 4G3      -0.125000
      5 C3           6.3300     0.5650     1.1840 ca         1 4G3      -0.320300
      6 C11          1.3900     0.0010     2.3950 ca         1 4G3      -0.135000
      7 C12          7.1520     3.1720     1.1730 ca         1 4G3       0.515200
      8 C1           8.1070     2.1530     1.1770 ca         1 4G3      -0.425900
      9 C6           2.0770     0.0000     1.1960 ca         1 4G3      -0.129300
     10 C10          0.0030     0.0130     2.3970 ca         1 4G3       0.113100
     11 C4           5.4350     1.6320     1.1860 ca         1 4G3       0.755200
     12 C5           3.5830    -0.0010     1.1910 c3         1 4G3       0.274100
     13 N2           5.8670     2.8860     1.1830 nb         1 4G3      -0.743000
     14 N            9.9480     3.7610     1.1770 nz         1 4G3      -0.677400
     15 N1           4.0730     1.3800     1.1900 nu         1 4G3      -0.852900
     16 O           10.3690     1.5810     1.1820 o          1 4G3      -0.439100
     17 O1          -0.6760     0.0200     3.5750 oh         1 4G3      -0.512100
     18 H1          -0.5410    -0.0020    -0.9380 ha         1 4G3       0.148000
     19 H2           8.3920     0.0050     1.1790 ha         1 4G3       0.173000
     20 H3           1.9230    -0.0030    -0.9390 ha         1 4G3       0.136000
     21 H4          -1.7750     0.0120     1.1960 ha         1 4G3       0.156000
     22 H5           5.9650    -0.4550     1.1850 ha         1 4G3       0.172000
     23 H6           1.9340     0.0030     3.3310 ha         1 4G3       0.144000
     24 H7           7.4720     4.2070     1.1710 h4         1 4G3      -0.002900
     25 H8           3.9410    -0.5120     0.3050 h1         1 4G3       0.062200
     26 H9           3.9470    -0.5120     2.0740 h1         1 4G3       0.062200
     27 H10          9.5960     4.2220     1.9920 hn         1 4G3       0.473800
     28 H11         10.9480     3.8090     1.1720 hn         1 4G3       0.473800
     29 H12          3.4230     2.1410     1.1950 hn         1 4G3       0.472800
     30 H13         -0.7920     0.9090     3.8660 ho         1 4G3       0.426000
     31 HN3          9.6030     4.2220     0.3580 hn         1 4G3       0.473800
     32 C            9.5460     2.4750     1.1780 c          1 4G3       0.514700
@<TRIPOS>BOND
     1     4     1 ar  
     2     4    10 ar  
     3     1     3 ar  
     4    17    10 1   
     5    10     6 ar  
     6     3     9 ar  
     7     6     9 ar  
     8     9    12 1   
     9    12    15 1   
    10    15    11 1   
    11     5    11 ar  
    12     5     2 ar  
    13    11    13 ar  
    14     2     8 ar  
    15    13     7 ar  
    16     8     7 ar  
    17     8    32 1   
    18    32    16 2   
    19    32    14 1   
    20     1    18 1   
    21     2    19 1   
    22     3    20 1   
    23     4    21 1   
    24     5    22 1   
    25     6    23 1   
    26     7    24 1   
    27    12    25 1   
    28    12    26 1   
    29    14    27 1   
    30    14    28 1   
    31    15    29 1   
    32    17    30 1   
    33    31    14 1   
@<TRIPOS>SUBSTRUCTURE
     1 4G3         1 TEMP              0 ****  ****    0 ROOT
