@<TRIPOS>MOLECULE
molecule
   39    40     1     0     0
SMALL
bcc


@<TRIPOS>ATOM
      1 C7           0.0000     0.0000     0.0000 ca         1 4G4      -0.128000
      2 C6           1.3820     0.0000     0.0000 ca         1 4G4      -0.094000
      3 C14         -2.6960     0.8030     7.3090 ca         1 4G4       0.040000
      4 C8          -0.6940    -0.0000     1.1960 ca         1 4G4      -0.103000
      5 C5           2.0750     0.0000     1.1950 ca         1 4G4      -0.159000
      6 C13         -2.0590     0.5540     6.1230 ca         1 4G4      -0.319300
      7 C16         -2.0650     3.1180     7.0670 ca         1 4G4       0.516200
      8 C15         -2.7060     2.1180     7.7990 ca         1 4G4      -0.429900
      9 C9          -0.0080    -0.0050     2.3940 ca         1 4G4      -0.121300
     10 C4           1.3810    -0.0000     2.3980 ca         1 4G4       0.103600
     11 C12         -1.4440     1.6030     5.4430 ca         1 4G4       0.756200
     12 C10         -0.7650    -0.0060     3.6970 c3         1 4G4       0.284100
     13 N17         -1.4690     2.8370     5.9280 nb         1 4G4      -0.746000
     14 N19         -3.3880     3.7030     9.5310 nz         1 4G4      -0.676400
     15 N11         -0.7990     1.3540     4.2430 nu         1 4G4      -0.834900
     16 N2           2.0780    -0.0000     3.6080 nh         1 4G4      -0.637000
     17 O20         -3.9420     1.5580     9.6990 o          1 4G4      -0.444100
     18 H1          -0.5400     0.0020    -0.9390 ha         1 4G4       0.144000
     19 H2           1.9230     0.0000    -0.9390 ha         1 4G4       0.144000
     20 H3          -3.1830     0.0050     7.8550 ha         1 4G4       0.171000
     21 H4          -1.7780    -0.0020     1.1920 ha         1 4G4       0.137000
     22 H5           3.1580     0.0020     1.1930 ha         1 4G4       0.144000
     23 H6          -2.0330    -0.4500     5.7170 ha         1 4G4       0.171000
     24 H7          -2.0660     4.1370     7.4360 h4         1 4G4      -0.004900
     25 H8           2.2600    -2.0840     3.4720 h1         1 4G4       0.040867
     26 H9           3.7440    -1.1810     3.1350 h1         1 4G4       0.040867
     27 H10          3.1630    -1.3410     4.7990 h1         1 4G4       0.040867
     28 H11          3.8650     1.0130     3.1960 h1         1 4G4       0.040867
     29 H12          3.1430     1.3830     4.7680 h1         1 4G4       0.040867
     30 H13          2.4280     2.0410     3.2890 h1         1 4G4       0.040867
     31 H14         -0.2730    -0.6650     4.4010 h1         1 4G4       0.064200
     32 H15         -1.7780    -0.3510     3.5270 h1         1 4G4       0.064200
     33 H16         -3.8320     4.3010     8.8630 hn         1 4G4       0.472467
     34 H17         -3.8820     3.7510    10.4010 hn         1 4G4       0.472467
     35 H18         -0.3930     2.1090     3.7280 hn         1 4G4       0.470800
     36 C1           2.8630    -1.2320     3.7640 c3         1 4G4       0.155100
     37 C3           2.9350     1.1870     3.7230 c3         1 4G4       0.155100
     38 H193        -2.4510     4.0160     9.6880 hn         1 4G4       0.472467
     39 C18         -3.3850     2.4370     9.0700 c          1 4G4       0.514700
@<TRIPOS>BOND
     1     2     1 ar  
     2     2     5 ar  
     3     1     4 ar  
     4     5    10 ar  
     5     4     9 ar  
     6    10     9 ar  
     7    10    16 1   
     8     9    12 1   
     9    16    37 1   
    10    16    36 1   
    11    12    15 1   
    12    15    11 1   
    13     6    11 ar  
    14     6     3 ar  
    15    11    13 ar  
    16     3     8 ar  
    17    13     7 ar  
    18     8     7 ar  
    19     8    39 1   
    20    39    17 2   
    21    39    14 1   
    22     1    18 1   
    23     2    19 1   
    24     3    20 1   
    25     4    21 1   
    26     5    22 1   
    27     6    23 1   
    28     7    24 1   
    29    36    25 1   
    30    36    26 1   
    31    36    27 1   
    32    37    28 1   
    33    37    29 1   
    34    37    30 1   
    35    12    31 1   
    36    12    32 1   
    37    14    33 1   
    38    14    34 1   
    39    15    35 1   
    40    38    14 1   
@<TRIPOS>SUBSTRUCTURE
     1 4G4         1 TEMP              0 ****  ****    0 ROOT
