@<TRIPOS>MOLECULE
molecule
   36    37     1     0     0
SMALL
bcc


@<TRIPOS>ATOM
      1 C10          0.0000     0.0000     0.0000 ca         1 4G5      -0.116000
      2 C11          1.3790     0.0000     0.0000 ca         1 4G5      -0.128000
      3 C12          2.0740     0.0000     1.1960 ca         1 4G5      -0.133000
      4 C13          1.3930     0.0010     2.4000 ca         1 4G5      -0.128000
      5 C14          0.0130    -0.0000     2.4140 ca         1 4G5      -0.116000
      6 C9          -0.6940    -0.0000     1.2110 ca         1 4G5      -0.094500
      7 C5          -2.1730    -0.0000     1.2190 cc         1 4G5       0.417000
      8 N1          -2.9400    -0.0020     0.1510 nd         1 4G5      -0.716000
      9 N4          -2.9550    -0.0060     2.3330 na         1 4G5      -0.253900
     10 C3          -4.2620    -0.0050     1.9120 cc         1 4G5      -0.102200
     11 C15         -5.4610    -0.0080     2.7630 c          1 4G5       0.882200
     12 O17         -5.3350    -0.0150     4.1060 o          1 4G5      -0.791300
     13 O16         -6.5660    -0.0070     2.2570 o          1 4G5      -0.791300
     14 C2          -4.2270    -0.0020     0.5230 cd         1 4G5       0.216800
     15 C6          -5.3970    -0.0030    -0.3820 c          1 4G5       0.601600
     16 O8          -6.5190    -0.1030     0.0760 o          1 4G5      -0.518100
     17 N7          -5.2210     0.1080    -1.7130 n          1 4G5      -0.483800
     18 C22         -3.8670     0.1660    -2.2710 c3         1 4G5       0.104300
     19 C18         -6.3820     0.1700    -2.6040 c3         1 4G5       0.047000
     20 C19         -6.7930     1.6080    -2.7940 c          1 4G5       0.434100
     21 O21         -6.1770     2.4930    -2.2390 o          1 4G5      -0.373100
     22 N20         -7.8460     1.9090    -3.5790 nz         1 4G5      -0.687400
     23 H10         -0.5420    -0.0790    -0.9350 ha         1 4G5       0.137500
     24 H11          1.9190    -0.0020    -0.9390 ha         1 4G5       0.128000
     25 H12          3.1580    -0.0000     1.1900 ha         1 4G5       0.126000
     26 H13          1.9430     0.0010     3.3330 ha         1 4G5       0.128000
     27 H14         -0.5190     0.0650     3.3550 ha         1 4G5       0.137500
     28 H4          -2.6390    -0.1450     3.2720 hn         1 4G5       0.327700
     29 H221        -3.3520     1.0350    -1.8800 h1         1 4G5       0.051700
     30 H222        -3.3240    -0.7300    -1.9940 h1         1 4G5       0.051700
     31 H223        -3.9240     0.2340    -3.3500 h1         1 4G5       0.051700
     32 H181        -7.2030    -0.3860    -2.1660 h1         1 4G5       0.095700
     33 H182        -6.1250    -0.2620    -3.5630 h1         1 4G5       0.095700
     34 H201        -7.9430     2.9040    -3.6390 hn         1 4G5       0.466467
     35 H202        -7.6990     1.5320    -4.4940 hn         1 4G5       0.466467
     36 H203        -8.6790     1.5160    -3.1860 hn         1 4G5       0.466467
@<TRIPOS>BOND
     1     1     2 ar  
     2     1     6 ar  
     3     2     3 ar  
     4     3     4 ar  
     5     4     5 ar  
     6     5     6 ar  
     7     6     7 1   
     8     7     8 2   
     9     7     9 1   
    10     8    14 1   
    11     9    10 1   
    12    10    11 1   
    13    10    14 2   
    14    11    12 1   
    15    11    13 1   
    16    14    15 1   
    17    15    16 2   
    18    15    17 1   
    19    17    18 1   
    20    17    19 1   
    21    19    20 1   
    22    20    21 2   
    23    20    22 1   
    24     1    23 1   
    25     2    24 1   
    26     3    25 1   
    27     4    26 1   
    28     5    27 1   
    29     9    28 1   
    30    18    29 1   
    31    18    30 1   
    32    18    31 1   
    33    19    32 1   
    34    19    33 1   
    35    22    34 1   
    36    22    35 1   
    37    36    22 1   
@<TRIPOS>SUBSTRUCTURE
     1 4G5         1 TEMP              0 ****  ****    0 ROOT
