@<TRIPOS>MOLECULE
molecule
   20    19     1     0     0
SMALL
bcc


@<TRIPOS>ATOM
      1 CAA          0.0000     0.0000     0.0000 c3         1 4G6      -0.124100
      2 CAF          1.5300     0.0000     0.0000 c3         1 4G6       0.079200
      3 CAB          2.0390     0.0000     1.4420 c3         1 4G6      -0.124100
      4 NAD          2.0190    -1.2010    -0.6920 nz         1 4G6      -0.826600
      5 CAE          2.0400     1.2480    -0.7210 c3         1 4G6       0.082800
      6 NAC          1.5510     1.2480    -2.1070 nz         1 4G6      -0.824600
      7 HAC         -0.3610     0.9940     0.2340 hc         1 4G6       0.100533
      8 HAB         -0.3610    -0.2940    -0.9780 hc         1 4G6       0.100533
      9 HAA         -0.3610    -0.7000     0.7440 hc         1 4G6       0.100533
     10 HAF          3.1230     0.0050     1.4430 hc         1 4G6       0.100533
     11 HAD          1.6750     0.8820     1.9550 hc         1 4G6       0.100533
     12 HAE          1.6820    -0.8870     1.9520 hc         1 4G6       0.100533
     13 HAL          2.9900    -1.0900    -0.9060 hn         1 4G6       0.469133
     14 H1           1.5030    -1.3310    -1.5400 hn         1 4G6       0.469133
     15 HAH          3.1240     1.2480    -0.7210 hx         1 4G6       0.153700
     16 HAG          1.6790     2.1330    -0.2110 hx         1 4G6       0.153700
     17 HAI          1.8590     2.0800    -2.5690 hn         1 4G6       0.472800
     18 H3           1.9110     0.4470    -2.5870 hn         1 4G6       0.472800
     19 HAD3         1.8960    -2.0000    -0.1020 hn         1 4G6       0.469133
     20 HAC3         0.5510     1.2230    -2.1070 hn         1 4G6       0.472800
@<TRIPOS>BOND
     1     6     5 1
     2     5     2 1
     3     4     2 1
     4     2     1 1
     5     2     3 1
     6     1     7 1
     7     1     8 1
     8     1     9 1
     9     3    10 1
    10     3    11 1
    11     3    12 1
    12     4    13 1
    13     4    14 1
    14     5    15 1
    15     5    16 1
    16     6    17 1
    17     6    18 1
    18    19     4 1
    19    20     6 1
@<TRIPOS>SUBSTRUCTURE
     1 4G6         1 TEMP              0 ****  ****    0 ROOT
