@<TRIPOS>MOLECULE
4G7
   37    38     1     0     0
SMALL
bcc


@<TRIPOS>ATOM
      1 C3           0.0000     0.0000     0.0000 c3         1 4G7       0.120300
      2 C4           1.5070     0.0000     0.0000 ca         1 4G7      -0.160300
      3 C5           2.1950     0.0000     1.1960 ca         1 4G7      -0.060000
      4 C6           3.5920     0.0010     1.1940 ca         1 4G7      -0.112600
      5 C11          3.5810    -0.0070    -1.2080 ca         1 4G7      -0.154000
      6 C12          2.1980    -0.0060    -1.1990 ca         1 4G7      -0.115000
      7 C19         -1.8140     1.6270    -0.0000 c          1 4G7       0.579700
      8 O20         -2.6040     0.7030    -0.0010 o          1 4G7      -0.594100
      9 C21         -2.3050     3.0170    -0.0010 ca         1 4G7      -0.214600
     10 C24         -1.8650     5.3780     0.0040 ca         1 4G7      -0.224000
     11 C30         -3.6830     3.2780    -0.0010 ca         1 4G7       0.248100
     12 C32         -5.9570     2.5920    -0.0020 c3         1 4G7       0.068400
     13 C33         -6.7850     1.3330    -0.0020 c          1 4G7       0.972600
     14 N1          -0.4880     1.3810    -0.0000 ns         1 4G7      -0.215900
     15 C10          4.2820    -0.0010    -0.0190 ca         1 4G7      -0.065000
     16 C22         -1.4000     4.0820     0.0050 ca         1 4G7      -0.025000
     17 C26         -3.2290     5.6330    -0.0030 ca         1 4G7       0.143900
     18 F27         -3.6750     6.9080    -0.0100 f          1 4G7      -0.146900
     19 C28         -4.1350     4.5870    -0.0020 ca         1 4G7      -0.279000
     20 O31         -4.5700     2.2510    -0.0020 os         1 4G7      -0.198900
     21 O34         -8.1260     1.4100    -0.0020 o          1 4G7      -0.878800
     22 O35         -6.2420     0.2540    -0.0020 o          1 4G7      -0.878800
     23 H1          -0.3610    -0.5100     0.8850 h1         1 4G7       0.022700
     24 H2          -0.3610    -0.5110    -0.8840 h1         1 4G7       0.022700
     25 H3           1.6530     0.0010     2.1340 ha         1 4G7       0.127000
     26 H5           4.1160    -0.0100    -2.1500 ha         1 4G7       0.081000
     27 H6           1.6530    -0.0110    -2.1350 ha         1 4G7       0.089000
     28 H7          -1.1630     6.2030     0.0090 ha         1 4G7       0.108000
     29 H8          -6.1860     3.1750     0.8820 h1         1 4G7      -0.006300
     30 H9          -6.1860     3.1740    -0.8870 h1         1 4G7      -0.006300
     31 H10          0.1620     2.1420     0.0400 hn         1 4G7       0.177500
     32 H11          5.3650    -0.0010    -0.0270 ha         1 4G7       0.123000
     33 H12         -0.3340     3.8880     0.0110 ha         1 4G7       0.106000
     34 H13         -5.1990     4.7930    -0.0050 ha         1 4G7       0.146000
     35 C1           4.3350     0.0010     2.4710 c          1 4G7       0.977200
     36 O1           5.6820     0.0000     2.4660 o          1 4G7      -0.889300
     37 O2           3.7310     0.0020     3.5250 o          1 4G7      -0.889300
@<TRIPOS>BOND
     1     1     2 1   
     2     1    14 1   
     3     1    23 1   
     4     1    24 1   
     5     2     3 ar  
     6     2     6 ar  
     7     3     4 ar  
     8     3    25 1   
     9     4    15 ar  
    10     4    35 1   
    11     5     6 ar  
    12     5    15 ar  
    13     5    26 1   
    14     6    27 1   
    15     7     8 2   
    16     7     9 1   
    17     7    14 1   
    18     9    11 ar  
    19     9    16 ar  
    20    10    16 ar  
    21    10    17 ar  
    22    10    28 1   
    23    11    19 ar  
    24    11    20 1   
    25    12    13 1   
    26    12    20 1   
    27    12    29 1   
    28    12    30 1   
    29    13    21 1   
    30    13    22 1   
    31    14    31 1   
    32    15    32 1   
    33    16    33 1   
    34    17    18 1   
    35    17    19 ar  
    36    19    34 1   
    37    35    36 1   
    38    35    37 1   
@<TRIPOS>SUBSTRUCTURE
     1 4G7         1 TEMP              0 ****  ****    0 ROOT
