@<TRIPOS>MOLECULE
4G8
   43    45     1     0     0
SMALL
bcc


@<TRIPOS>ATOM
      1 C20          0.0000     0.0000     0.0000 ca         1 4G8      -0.084000
      2 C21          1.3820     0.0000     0.0000 ca         1 4G8      -0.125000
      3 C22          2.0740     0.0000     1.1970 ca         1 4G8      -0.135000
      4 C23          1.3830     0.0000     2.3940 ca         1 4G8      -0.125000
      5 C24          0.0000     0.0020     2.3940 ca         1 4G8      -0.084000
      6 C19         -0.6900     0.0010     1.1980 ca         1 4G8      -0.087300
      7 C18         -2.1980     0.0020     1.1990 c3         1 4G8       0.109300
      8 N17         -2.6880    -1.3790     1.1980 n          1 4G8      -0.114800
      9 C25         -2.9310    -2.0690     2.4670 c3         1 4G8      -0.089000
     10 C26         -4.3830    -1.9280     2.8440 c          1 4G8       0.987600
     11 O27         -5.1370    -1.3120     2.1280 o          1 4G8      -0.910800
     12 O28         -4.8390    -2.4840     3.9770 o          1 4G8      -0.910800
     13 C15         -2.9130    -2.0140     0.0310 c          1 4G8       0.532600
     14 O16         -2.6220    -1.4760    -1.0190 o          1 4G8      -0.621100
     15 C9          -3.5150    -3.3650     0.0280 cc         1 4G8       0.245800
     16 N8          -3.9850    -4.0240     1.0950 nc         1 4G8      -0.533000
     17 C10         -3.7020    -4.1790    -1.0830 cd         1 4G8      -0.360200
     18 C12         -3.3410    -3.8670    -2.4740 c          1 4G8       0.987200
     19 O14         -2.8210    -2.8010    -2.7440 o          1 4G8      -0.869300
     20 O13         -3.5850    -4.7640    -3.4520 o          1 4G8      -0.869300
     21 N11         -4.2890    -5.3320    -0.6240 na         1 4G8       0.295100
     22 C1          -4.4470    -5.1970     0.7200 cd         1 4G8       0.139000
     23 C2          -5.0460    -6.2080     1.6170 ca         1 4G8      -0.028500
     24 C3          -5.1570    -5.9520     2.9860 ca         1 4G8      -0.106000
     25 C4          -5.7180    -6.8990     3.8180 ca         1 4G8      -0.126000
     26 C5          -6.1690    -8.0990     3.2990 ca         1 4G8      -0.154000
     27 C6          -6.0610    -8.3600     1.9440 ca         1 4G8      -0.126000
     28 C7          -5.5070    -7.4180     1.1000 ca         1 4G8      -0.106000
     29 H20         -0.5420    -0.0000    -0.9380 ha         1 4G8       0.127000
     30 H21          1.9230    -0.0010    -0.9380 ha         1 4G8       0.087000
     31 H22          3.1580    -0.0010     1.1970 ha         1 4G8       0.080000
     32 H23          1.9240     0.0010     3.3320 ha         1 4G8       0.087000
     33 H24         -0.5410     0.0030     3.3330 ha         1 4G8       0.127000
     34 H181        -2.5590     0.5140     0.3150 h1         1 4G8       0.028700
     35 H182        -2.5580     0.5130     2.0840 h1         1 4G8       0.028700
     36 H251        -2.3120    -1.6310     3.2410 h1         1 4G8       0.027200
     37 H252        -2.6860    -3.1190     2.3590 h1         1 4G8       0.027200
     38 H11         -4.5540    -6.1240    -1.1760 hn         1 4G8       0.122700
     39 H3          -4.7300    -5.0480     3.4040 ha         1 4G8       0.139500
     40 H7          -5.5480    -7.8540     0.1090 ha         1 4G8       0.139500
     41 H4          -5.8050    -6.7030     4.8800 ha         1 4G8       0.087000
     42 H5          -6.6080    -8.8400     3.9570 ha         1 4G8       0.077000
     43 H6          -6.4140    -9.3030     1.5440 ha         1 4G8       0.087000
@<TRIPOS>BOND
     1     1     2 ar  
     2     1     6 ar  
     3     1    29 1   
     4     2     3 ar  
     5     2    30 1   
     6     3     4 ar  
     7     3    31 1   
     8     4     5 ar  
     9     4    32 1   
    10     5     6 ar  
    11     5    33 1   
    12     6     7 1   
    13     7     8 1   
    14     7    34 1   
    15     7    35 1   
    16     8     9 1   
    17     8    13 1   
    18     9    10 1   
    19     9    36 1   
    20     9    37 1   
    21    10    11 1   
    22    10    12 1   
    23    13    14 2   
    24    13    15 1   
    25    15    16 1   
    26    15    17 2   
    27    16    22 2   
    28    17    18 1   
    29    17    21 1   
    30    18    19 1   
    31    18    20 1   
    32    21    22 1   
    33    21    38 1   
    34    22    23 1   
    35    23    24 ar  
    36    23    28 ar  
    37    24    25 ar  
    38    24    39 1   
    39    25    26 ar  
    40    25    41 1   
    41    26    27 ar  
    42    26    42 1   
    43    27    28 ar  
    44    27    43 1   
    45    28    40 1   
@<TRIPOS>SUBSTRUCTURE
     1 4G8         1 TEMP              0 ****  ****    0 ROOT
