@<TRIPOS>MOLECULE
4G9
   30    30     1     0     0
SMALL
bcc


@<TRIPOS>ATOM
      1 Cl2          0.0000     0.0000     0.0000 cl         1 4G9       0.009600
      2 C10          1.7360     0.0000     0.0000 ca         1 4G9       0.037400
      3 C3           2.4260     0.0000     1.1990 ca         1 4G9      -0.139500
      4 S            1.5430     0.0010     2.7230 sy         1 4G9       1.050200
      5 O1           2.5220     0.0060     3.7540 o          1 4G9      -0.581800
      6 O2           0.5360     0.9970     2.6030 o          1 4G9      -0.581800
      7 N1           0.7550    -1.4510     2.8350 n3         1 4G9      -0.533500
      8 C2           1.4620    -2.6320     3.3330 c3         1 4G9       0.265100
      9 C1          -0.6500    -1.5540     2.4320 c3         1 4G9       0.265100
     10 C9           2.4270    -0.0060    -1.2000 ca         1 4G9      -0.106000
     11 C8           3.8070    -0.0070    -1.2020 ca         1 4G9      -0.041000
     12 C5           4.5040    -0.0010    -0.0010 ca         1 4G9      -0.118400
     13 C4           3.8080    -0.0010     1.2010 ca         1 4G9      -0.017000
     14 N2           5.9030    -0.0030    -0.0010 ns         1 4G9      -0.033100
     15 C6           6.5780     0.6520    -0.9670 c          1 4G9       0.545100
     16 O3           5.9740     1.3170    -1.7820 o          1 4G9      -0.608100
     17 C7           8.0790     0.5570    -1.0340 c3         1 4G9      -0.025000
     18 H4           0.8710    -3.5180     3.1350 h1         1 4G9       0.006033
     19 H5           1.6200    -2.5350     4.4010 h1         1 4G9       0.006033
     20 H6           2.4200    -2.7180     2.8330 h1         1 4G9       0.006033
     21 H1          -1.0740    -0.5610     2.3420 h1         1 4G9       0.006033
     22 H3          -0.7160    -2.0630     1.4780 h1         1 4G9       0.006033
     23 H2          -1.1990    -2.1150     3.1790 h1         1 4G9       0.006033
     24 H12          1.8840    -0.0100    -2.1370 ha         1 4G9       0.122000
     25 H11          4.3470    -0.0090    -2.1410 ha         1 4G9       0.141000
     26 H7           4.3490     0.0010     2.1390 ha         1 4G9       0.134000
     27 H8           6.4030    -0.4940     0.7140 hn         1 4G9       0.169500
     28 H9           8.3710    -0.4770    -1.1660 h1         1 4G9       0.036700
     29 H10          8.5060     0.9380    -0.1130 h1         1 4G9       0.036700
     30 Cl1          8.6820     1.5340    -2.4230 cl         1 4G9      -0.062400
@<TRIPOS>BOND
     1     1     2 1   
     2     2     3 ar  
     3     2    10 ar  
     4     3     4 1   
     5     3    13 ar  
     6     4     5 2   
     7     4     6 2   
     8     4     7 1   
     9     7     8 1   
    10     7     9 1   
    11     8    18 1   
    12     8    19 1   
    13     8    20 1   
    14     9    21 1   
    15     9    22 1   
    16     9    23 1   
    17    10    11 ar  
    18    10    24 1   
    19    11    12 ar  
    20    11    25 1   
    21    12    13 ar  
    22    12    14 1   
    23    13    26 1   
    24    14    15 1   
    25    14    27 1   
    26    15    16 2   
    27    15    17 1   
    28    17    28 1   
    29    17    29 1   
    30    17    30 1   
@<TRIPOS>SUBSTRUCTURE
     1 4G9         1 TEMP              0 ****  ****    0 ROOT
