@<TRIPOS>MOLECULE
molecule
   30    30     1     0     0
SMALL
bcc


@<TRIPOS>ATOM
      1 Cl2          0.0000     0.0000     0.0000 cl         1 4G9      -0.083400
      2 C10          1.7360     0.0000     0.0000 ca         1 4G9       0.100400
      3 C3           2.4260     0.0000     1.1990 ca         1 4G9      -0.290500
      4 S            1.5430     0.0010     2.7230 sy         1 4G9       1.425200
      5 O1           2.5220     0.0060     3.7540 o          1 4G9      -0.627300
      6 O2           0.5360     0.9970     2.6030 o          1 4G9      -0.627300
      7 N1           0.7550    -1.4510     2.8350 n3         1 4G9      -0.819500
      8 C2           1.4620    -2.6320     3.3330 c3         1 4G9       0.225100
      9 C1          -0.6500    -1.5540     2.4320 c3         1 4G9       0.225100
     10 C9           2.4270    -0.0060    -1.2000 ca         1 4G9      -0.123000
     11 C8           3.8070    -0.0070    -1.2020 ca         1 4G9      -0.070000
     12 C5           4.5040    -0.0010    -0.0010 ca         1 4G9       0.037600
     13 C4           3.8080    -0.0010     1.2010 ca         1 4G9      -0.056000
     14 N2           5.9030    -0.0030    -0.0010 ns         1 4G9      -0.480100
     15 C6           6.5780     0.6520    -0.9670 c          1 4G9       0.646100
     16 O3           5.9740     1.3170    -1.7820 o          1 4G9      -0.560100
     17 C7           8.0790     0.5570    -1.0340 c3         1 4G9      -0.039000
     18 H4           0.8710    -3.5180     3.1350 h1         1 4G9       0.045033
     19 H5           1.6200    -2.5350     4.4010 h1         1 4G9       0.045033
     20 H6           2.4200    -2.7180     2.8330 h1         1 4G9       0.045033
     21 H1          -1.0740    -0.5610     2.3420 h1         1 4G9       0.045033
     22 H3          -0.7160    -2.0630     1.4780 h1         1 4G9       0.045033
     23 H2          -1.1990    -2.1150     3.1790 h1         1 4G9       0.045033
     24 H12          1.8840    -0.0100    -2.1370 ha         1 4G9       0.155000
     25 H11          4.3470    -0.0090    -2.1410 ha         1 4G9       0.170000
     26 H7           4.3490     0.0010     2.1390 ha         1 4G9       0.162000
     27 H8           6.4030    -0.4940     0.7140 hn         1 4G9       0.328500
     28 H9           8.3710    -0.4770    -1.1660 h1         1 4G9       0.083200
     29 H10          8.5060     0.9380    -0.1130 h1         1 4G9       0.083200
     30 Cl1          8.6820     1.5340    -2.4230 cl         1 4G9      -0.134400
@<TRIPOS>BOND
     1     5     4 2
     2     1     2 1
     3     4     6 2
     4     4     3 1
     5     4     7 1
     6     2     3 ar
     7     2    10 ar
     8     3    13 ar
     9     7     8 1
    10     7     9 1
    11    10    11 ar
    12    13    12 ar
    13    11    12 ar
    14    12    14 1
    15    14    15 1
    16    15    16 2
    17    15    17 1
    18     8    18 1
    19     8    19 1
    20     8    20 1
    21     9    21 1
    22     9    22 1
    23     9    23 1
    24    10    24 1
    25    11    25 1
    26    13    26 1
    27    14    27 1
    28    17    28 1
    29    17    29 1
    30    17    30 1
@<TRIPOS>SUBSTRUCTURE
     1 4G9         1 TEMP              0 ****  ****    0 ROOT
