@<TRIPOS>MOLECULE
4GA
   35    33     1     0     0
SMALL
bcc


@<TRIPOS>ATOM
      1 CAA         3.4390    0.4880   -0.3700 c3        1 4GA     -0.066100
      2 OAB         5.8240    0.4790    3.0150 o         1 4GA     -0.950500
      3 OAC         8.0110    5.0110    5.3380 o         1 4GA     -0.926600
      4 OAD         7.4440    2.2070    4.3170 oh        1 4GA     -0.622100
      5 OAE         4.9730   -0.3180    5.2020 o         1 4GA     -0.950500
      6 OAF         7.0620   -1.3990    4.2590 o         1 4GA     -0.950500
      7 OAG         7.8930    4.3620    2.8740 o         1 4GA     -0.926600
      8 OAH         9.9870    3.8750    4.2450 o         1 4GA     -0.926600
      9 CAI         2.0720   -0.7620    5.4300 cc        1 4GA     -0.169600
     10 CAJ         0.8430   -1.1950    5.9910 cd        1 4GA      0.162200
     11 CAK         0.3390   -0.1030    4.1690 cc        1 4GA      0.292400
     12 CAL         3.4620    0.9470    1.0630 c3        1 4GA     -0.132400
     13 CAM         2.4940    0.1570    1.9150 c3        1 4GA     -0.056400
     14 CAN         2.6660    0.5650    3.3760 c3        1 4GA     -0.031700
     15 CAO         7.6960    0.9610    6.2960 c2        1 4GA     -0.329000
     16 NAP         1.7370   -0.0710    4.2760 na        1 4GA     -0.140900
     17 NAQ        -0.2250   -0.7810    5.1990 nd        1 4GA     -0.737000
     18 CAR         7.1910    1.0780    5.0660 c2        1 4GA     -0.001500
     19 PAS         6.2150   -0.1570    4.3400 p5        1 4GA      1.238100
     20 PAT         8.5550    4.2490    4.1900 p3        1 4GA      1.760800
     21 HAA         4.1520    1.0950   -0.9790 hc        1 4GA      0.001700
     22 HAAA        2.4190    0.5900   -0.8180 hc        1 4GA      0.001700
     23 HAAB        3.7430   -0.5850   -0.4410 hc        1 4GA      0.001700
     24 HOAD        6.9630    2.1040    3.4650 ho        1 4GA      0.485000
     25 HAI         3.1410   -0.8610    5.7270 h4        1 4GA      0.296000
     26 HAJ         0.6930   -1.7650    6.9010 h4        1 4GA     -0.001900
     27 HAK        -0.1960    0.3680    3.3450 h5        1 4GA      0.022100
     28 HAL         4.5070    0.8310    1.5080 hc        1 4GA      0.107700
     29 HALA        3.2050    2.0370    1.1120 hc        1 4GA      0.107700
     30 HAM         2.7060   -0.9380    1.8030 hc        1 4GA      0.003200
     31 HAMA        1.4380    0.3310    1.5690 hc        1 4GA      0.003200
     32 HAN         2.5260    1.6790    3.4650 h1        1 4GA      0.133700
     33 HANA        3.7530    0.3210    3.7240 h1        1 4GA      0.133700
     34 HAO         7.4750    0.0450    6.8540 ha        1 4GA      0.082500
     35 HAOA        8.3180    1.7070    6.7970 ha        1 4GA      0.082500
@<TRIPOS>BOND
     1    1   12 1   
     2    1   21 1   
     3    1   22 1   
     4    1   23 1   
     5    2   19 1   
     6    3   20 1   
     7    4   18 1   
     8    4   24 1   
     9    5   19 1   
    10    6   19 1   
    11    7   20 1   
    12    8   20 1   
    13    9   10 2   
    14    9   16 1   
    15    9   25 1   
    16   10   17 1   
    17   10   26 1   
    18   11   16 1   
    19   11   17 2   
    20   11   27 1   
    21   12   13 1   
    22   12   28 1   
    23   12   29 1   
    24   13   14 1   
    25   13   30 1   
    26   13   31 1   
    27   14   16 1   
    28   14   32 1   
    29   14   33 1   
    30   15   18 2   
    31   15   34 1   
    32   15   35 1   
    33   18   19 1   
@<TRIPOS>SUBSTRUCTURE
     1 4GA         1 TEMP              0 ****  ****    0 ROOT
