@<TRIPOS>MOLECULE
molecule
   35    35     1     0     0
SMALL
bcc


@<TRIPOS>ATOM
      1 CAA          0.0000     0.0000     0.0000 c3         1 4GA      -0.090100
      2 OAB          9.2230     1.0420     5.5810 o          1 4GA      -0.890500
      3 OAC          6.9090     2.5640     8.3860 o          1 4GA      -0.890500
      4 OAD          6.7370     2.6040     4.3600 oh         1 4GA      -0.660800
      5 OAE          7.3090    -0.5090     4.6620 o          1 4GA      -0.890500
      6 OAF          7.5480    -0.0380     7.1300 o          1 4GA      -0.890500
      7 OAG          6.0310     4.4970     6.8360 o          1 4GA      -0.890500
      8 OAH          8.4220     3.6990     6.7170 o          1 4GA      -0.890500
      9 CAI          4.3300    -1.1030     3.5900 cc         1 4GA      -0.279300
     10 CAJ          4.7580    -0.6520     4.7840 cd         1 4GA      -0.019300
     11 CAK          4.3240     1.0870     3.5800 cc         1 4GA      -0.072600
     12 CAL          1.5310     0.0000     0.0000 c3         1 4GA      -0.085400
     13 CAM          2.0400     0.0000     1.4430 c3         1 4GA      -0.108400
     14 CAN          3.5700     0.0000     1.4430 c3         1 4GA       0.062300
     15 CAO          5.1430     1.5690     5.8520 c3         1 4GA       0.045300
     16 NAP          4.0590    -0.0000     2.8240 na         1 4GA      -0.077100
     17 NAQ          4.7480     0.6900     4.7490 na         1 4GA       0.107900
     18 CAR          6.5930     2.0160     5.6530 c3         1 4GA      -0.113600
     19 PAS          7.6980     0.5730     5.7900 p5         1 4GA       1.046200
     20 PAT          7.0330     3.2400     6.9310 p5         1 4GA       1.046200
     21 HAA         -0.3610    -0.0010    -1.0210 hc         1 4GA       0.025700
     22 HAAA        -0.3610    -0.8840     0.5110 hc         1 4GA       0.025700
     23 HAAB        -0.3610     0.8850     0.5100 hc         1 4GA       0.025700
     24 HOAD         7.5310     3.1110     4.3310 ho         1 4GA       0.424000
     25 HAI          4.2230    -2.1380     3.2910 h4         1 4GA       0.153000
     26 HAJ          5.0590    -1.2640     5.6250 h4         1 4GA       0.228000
     27 HAK          4.2120     2.1170     3.2660 h5         1 4GA       0.215000
     28 HAL          1.8930     0.8850    -0.5110 hc         1 4GA       0.036700
     29 HALA         1.8930    -0.8850    -0.5110 hc         1 4GA       0.036700
     30 HAM          1.6780     0.8840     1.9530 hc         1 4GA       0.051700
     31 HAMA         1.6790    -0.8850     1.9530 hc         1 4GA       0.051700
     32 HAN          3.9320    -0.8830     0.9320 h1         1 4GA       0.054700
     33 HANA         3.9310     0.8850     0.9330 h1         1 4GA       0.054700
     34 HAO          4.4970     2.4380     5.8700 h1         1 4GA       0.080700
     35 HAOA         5.0550     1.0340     6.7900 h1         1 4GA       0.080700
@<TRIPOS>BOND
     1     1    12 1   
     2     1    21 1   
     3     1    22 1   
     4     1    23 1   
     5     2    19 1   
     6     4    24 1   
     7     6    19 1   
     8     8    20 1   
     9     9    16 1   
    10     9    25 1   
    11    10     9 2   
    12    10    17 1   
    13    10    26 1   
    14    11    27 1   
    15    12    13 1   
    16    12    28 1   
    17    12    29 1   
    18    13    14 1   
    19    13    30 1   
    20    13    31 1   
    21    14    32 1   
    22    14    33 1   
    23    15    18 1   
    24    15    34 1   
    25    15    35 1   
    26    16    11 2   
    27    16    14 1   
    28    17    11 1   
    29    17    15 1   
    30    18     4 1   
    31    18    20 1   
    32    19     5 1   
    33    19    18 1   
    34    20     3 1   
    35    20     7 1   
@<TRIPOS>SUBSTRUCTURE
     1 4GA         1 TEMP              0 ****  ****    0 ROOT
