@<TRIPOS>MOLECULE
4GB
   51    52     1     0     0
SMALL
bcc


@<TRIPOS>ATOM
      1 O3           0.0000     0.0000     0.0000 o          1 4GB      -0.583800
      2 S2           1.4220     0.0000     0.0000 sy         1 4GB       1.050200
      3 O2           2.1990     0.0000     1.1900 o          1 4GB      -0.583800
      4 N2           1.8900    -1.3330    -0.8640 n3         1 4GB      -0.529500
      5 C13          1.0120    -1.9160    -1.8370 c3         1 4GB       0.245300
      6 C12          0.0350    -2.9960    -1.3120 c3         1 4GB      -0.055400
      7 C11          0.7590    -3.9280    -0.3080 c3         1 4GB      -0.030400
      8 C10          2.1630    -4.2090    -0.7590 c3         1 4GB      -0.030400
      9 C9           3.0410    -3.2340     0.0170 c3         1 4GB      -0.055400
     10 C8           3.2430    -1.9470    -0.6460 c3         1 4GB       0.245300
     11 C7           1.9190     1.4190    -0.9190 ca         1 4GB      -0.176500
     12 C6           3.1690     1.9710    -0.7110 ca         1 4GB       0.029000
     13 C14          1.0600     1.9740    -1.8480 ca         1 4GB       0.035000
     14 C15          1.4450     3.0870    -2.5730 ca         1 4GB      -0.214000
     15 C16          2.6940     3.6490    -2.3670 ca         1 4GB       0.164100
     16 O4           3.0740     4.7440    -3.0790 os         1 4GB      -0.308900
     17 C17          2.1340     5.2630    -4.0230 c3         1 4GB       0.305500
     18 C5           3.5630     3.0870    -1.4340 ca         1 4GB      -0.149400
     19 N1           4.8290     3.6490    -1.2260 ns         1 4GB      -0.032100
     20 C4           5.3750     3.6410     0.0060 c          1 4GB       0.553100
     21 O1           4.8070     3.0790     0.9180 o          1 4GB      -0.623100
     22 C3           6.6910     4.3330     0.2510 c3         1 4GB      -0.066100
     23 H1           0.4250    -1.1190    -2.2790 h1         1 4GB       0.014950
     24 H2           1.6220    -2.3640    -2.6130 h1         1 4GB       0.014950
     25 H3          -0.7980    -2.5130    -0.8160 hc         1 4GB       0.024950
     26 H4          -0.3300    -3.5840    -2.1460 hc         1 4GB       0.024950
     27 H5           0.7870    -3.4490     0.6640 hc         1 4GB       0.018700
     28 H6           0.2150    -4.8620    -0.2340 hc         1 4GB       0.018700
     29 H7           2.2560    -4.0300    -1.8240 hc         1 4GB       0.018700
     30 H8           2.4350    -5.2300    -0.5190 hc         1 4GB       0.018700
     31 H9           4.0090    -3.6940     0.1730 hc         1 4GB       0.024950
     32 H10          2.5810    -3.0530     0.9820 hc         1 4GB       0.024950
     33 H11          3.8420    -1.3000    -0.0170 h1         1 4GB       0.014950
     34 H12          3.7340    -2.0990    -1.6000 h1         1 4GB       0.014950
     35 H13          3.8410     1.5310     0.0150 ha         1 4GB       0.164000
     36 H14          0.0830     1.5350    -2.0100 ha         1 4GB       0.123000
     37 H15          0.7700     3.5200    -3.3010 ha         1 4GB       0.134000
     38 H16          1.7050     4.4460    -4.5910 h2         1 4GB       0.050200
     39 H17          2.6380     5.9460    -4.6960 h2         1 4GB       0.050200
     40 H19          5.3460     4.0170    -2.0000 hn         1 4GB       0.171500
     41 H20          6.5310     5.4030     0.3120 hc         1 4GB       0.023700
     42 H21          7.1180     3.9780     1.1820 hc         1 4GB       0.023700
     43 H22          7.3710     4.1150    -0.5640 hc         1 4GB       0.023700
     44 S1           0.8160     6.1440    -3.1410 ss         1 4GB      -0.413200
     45 C2           1.6230     7.6920    -2.6450 c3         1 4GB       0.091700
     46 C18          0.6250     8.5630    -1.8770 c3         1 4GB       0.025900
     47 H18          2.4720     7.4700    -2.0100 h1         1 4GB       0.033700
     48 H23          1.9600     8.2220    -3.5270 h1         1 4GB       0.033700
     49 H24          1.0960     9.5000    -1.6070 hc         1 4GB       0.014367
     50 H25         -0.2380     8.7590    -2.5010 hc         1 4GB       0.014367
     51 H26          0.3100     8.0450    -0.9790 hc         1 4GB       0.014367
@<TRIPOS>BOND
     1     1     2 2   
     2     2     3 2   
     3     2     4 1   
     4     2    11 1   
     5     4     5 1   
     6     4    10 1   
     7     5     6 1   
     8     5    23 1   
     9     5    24 1   
    10     6     7 1   
    11     6    25 1   
    12     6    26 1   
    13     7     8 1   
    14     7    27 1   
    15     7    28 1   
    16     8     9 1   
    17     8    29 1   
    18     8    30 1   
    19     9    10 1   
    20     9    31 1   
    21     9    32 1   
    22    10    33 1   
    23    10    34 1   
    24    11    12 ar  
    25    11    13 ar  
    26    12    18 ar  
    27    12    35 1   
    28    13    14 ar  
    29    13    36 1   
    30    14    15 ar  
    31    14    37 1   
    32    15    16 1   
    33    15    18 ar  
    34    16    17 1   
    35    17    38 1   
    36    17    39 1   
    37    17    44 1   
    38    18    19 1   
    39    19    20 1   
    40    19    40 1   
    41    20    21 2   
    42    20    22 1   
    43    22    41 1   
    44    22    42 1   
    45    22    43 1   
    46    44    45 1   
    47    45    46 1   
    48    45    47 1   
    49    45    48 1   
    50    46    49 1   
    51    46    50 1   
    52    46    51 1   
@<TRIPOS>SUBSTRUCTURE
     1 4GB         1 TEMP              0 ****  ****    0 ROOT
