@<TRIPOS>MOLECULE
4GD
   38    41     1     0     0
SMALL
bcc


@<TRIPOS>ATOM
      1 N01          0.0000     0.0000     0.0000 ns         1 4GD      -0.017100
      2 C02          1.3480     0.0000     0.0000 c          1 4GD       0.629300
      3 O03          1.9570     0.0000     1.0550 o          1 4GD      -0.610100
      4 C04          2.0810    -0.0020    -1.2690 cc         1 4GD      -0.430800
      5 C05          1.5200    -0.0020    -2.5590 cc         1 4GD       0.510500
      6 N06          2.4880    -0.0020    -3.4370 nd         1 4GD      -0.734100
      7 N07          3.7200    -0.0030    -2.7740 na         1 4GD       0.555200
      8 C08          3.4790     0.0030    -1.4290 cd         1 4GD       0.245500
      9 N09          4.4860     0.0040    -0.5540 nd         1 4GD      -0.493000
     10 C10          5.7350    -0.0010    -0.9650 cc         1 4GD       0.417200
     11 C11          6.0260    -0.0060    -2.3340 cc         1 4GD      -0.239300
     12 C12          5.0050    -0.0030    -3.2300 cd         1 4GD      -0.172300
     13 C13         -0.6970     0.0010     1.2080 cc         1 4GD      -0.236700
     14 C14         -0.1490     0.0030     2.4540 cd         1 4GD      -0.339300
     15 C15         -1.1940     0.0040     3.3820 cd         1 4GD       0.380600
     16 N16         -2.3280     0.0040     2.7290 nc         1 4GD      -0.662800
     17 N17         -2.0500     0.0080     1.3560 na         1 4GD       0.578300
     18 C18         -1.0410     0.0050     4.8810 c3         1 4GD      -0.003400
     19 C19         -2.9950     0.0150     0.3210 ca         1 4GD      -0.126200
     20 C20         -4.1940    -0.6690     0.4690 ca         1 4GD      -0.115500
     21 C21         -5.1230    -0.6590    -0.5510 ca         1 4GD      -0.081000
     22 C22         -4.8610     0.0300    -1.7220 ca         1 4GD      -0.104000
     23 C23         -3.6670     0.7110    -1.8730 ca         1 4GD      -0.081000
     24 C24         -2.7360     0.7100    -0.8520 ca         1 4GD      -0.115500
     25 H1          -0.5000    -0.0500    -0.8660 hn         1 4GD       0.173500
     26 H2           0.4610    -0.0030    -2.7870 h4         1 4GD       0.010800
     27 H3           6.5420    -0.0040    -0.2420 h4         1 4GD      -0.004900
     28 H4           7.0540    -0.0100    -2.6750 ha         1 4GD       0.132000
     29 H5           5.2100    -0.0070    -4.2940 h4         1 4GD       0.148000
     30 H6           0.9090     0.0030     2.6860 ha         1 4GD       0.191000
     31 H7          -2.0010     0.2010     5.3420 hc         1 4GD       0.010700
     32 H8          -0.6740    -0.9610     5.2070 hc         1 4GD       0.010700
     33 H9          -0.3360     0.7750     5.1710 hc         1 4GD       0.010700
     34 H10         -4.4010    -1.2080     1.3860 ha         1 4GD       0.122000
     35 H11         -6.0590    -1.1920    -0.4360 ha         1 4GD       0.106500
     36 H12         -5.5910     0.0340    -2.5220 ha         1 4GD       0.106000
     37 H13         -3.4640     1.2520    -2.7890 ha         1 4GD       0.106500
     38 H14         -1.8010     1.2440    -0.9710 ha         1 4GD       0.122000
@<TRIPOS>BOND
     1     1     2 1   
     2     1    13 1   
     3     1    25 1   
     4     2     3 2   
     5     2     4 1   
     6     4     5 1   
     7     4     8 2   
     8     5     6 2   
     9     5    26 1   
    10     6     7 1   
    11     7     8 1   
    12     7    12 1   
    13     8     9 1   
    14     9    10 2   
    15    10    11 1   
    16    10    27 1   
    17    11    12 2   
    18    11    28 1   
    19    12    29 1   
    20    13    14 2   
    21    13    17 1   
    22    14    15 1   
    23    14    30 1   
    24    15    16 2   
    25    15    18 1   
    26    16    17 1   
    27    17    19 1   
    28    18    31 1   
    29    18    32 1   
    30    18    33 1   
    31    19    20 ar  
    32    19    24 ar  
    33    20    21 ar  
    34    20    34 1   
    35    21    22 ar  
    36    21    35 1   
    37    22    23 ar  
    38    22    36 1   
    39    23    24 ar  
    40    23    37 1   
    41    24    38 1   
@<TRIPOS>SUBSTRUCTURE
     1 4GD         1 TEMP              0 ****  ****    0 ROOT
