@<TRIPOS>MOLECULE
molecule
   38    41     1     0     0
SMALL
bcc


@<TRIPOS>ATOM
      1 N01          0.0000     0.0000     0.0000 ns         1 4GD      -0.462100
      2 C02          1.3480     0.0000     0.0000 c          1 4GD       0.716300
      3 O03          1.9570     0.0000     1.0550 o          1 4GD      -0.568100
      4 C04          2.0810    -0.0020    -1.2690 cc         1 4GD      -0.397800
      5 C05          1.5200    -0.0020    -2.5590 cc         1 4GD       0.440500
      6 N06          2.4880    -0.0020    -3.4370 nd         1 4GD      -0.567100
      7 N07          3.7200    -0.0030    -2.7740 na         1 4GD       0.048200
      8 C08          3.4790     0.0030    -1.4290 cc         1 4GD       0.462500
      9 N09          4.4860     0.0040    -0.5540 nc         1 4GD      -0.640000
     10 C10          5.7350    -0.0010    -0.9650 cd         1 4GD       0.472200
     11 C11          6.0260    -0.0060    -2.3340 cd         1 4GD      -0.317300
     12 C12          5.0050    -0.0030    -3.2300 cc         1 4GD       0.017700
     13 C13         -0.6970     0.0010     1.2080 cc         1 4GD       0.074300
     14 C14         -0.1490     0.0030     2.4540 cd         1 4GD      -0.347300
     15 C15         -1.1940     0.0040     3.3820 cd         1 4GD       0.355600
     16 N16         -2.3280     0.0040     2.7290 nc         1 4GD      -0.512800
     17 N17         -2.0500     0.0080     1.3560 na         1 4GD       0.113300
     18 C18         -1.0410     0.0050     4.8810 c3         1 4GD      -0.109400
     19 C19         -2.9950     0.0150     0.3210 ca         1 4GD       0.046800
     20 C20         -4.1940    -0.6690     0.4690 ca         1 4GD      -0.149000
     21 C21         -5.1230    -0.6590    -0.5510 ca         1 4GD      -0.109500
     22 C22         -4.8610     0.0300    -1.7220 ca         1 4GD      -0.140000
     23 C23         -3.6670     0.7110    -1.8730 ca         1 4GD      -0.109500
     24 C24         -2.7360     0.7100    -0.8520 ca         1 4GD      -0.149000
     25 H1          -0.5000    -0.0500    -0.8660 hn         1 4GD       0.324500
     26 H2           0.4610    -0.0030    -2.7870 h4         1 4GD       0.062800
     27 H3           6.5420    -0.0040    -0.2420 h4         1 4GD       0.045100
     28 H4           7.0540    -0.0100    -2.6750 ha         1 4GD       0.165000
     29 H5           5.2100    -0.0070    -4.2940 h4         1 4GD       0.181000
     30 H6           0.9090     0.0030     2.6860 ha         1 4GD       0.203000
     31 H7          -2.0010     0.2010     5.3420 hc         1 4GD       0.051033
     32 H8          -0.6740    -0.9610     5.2070 hc         1 4GD       0.051033
     33 H9          -0.3360     0.7750     5.1710 hc         1 4GD       0.051033
     34 H10         -4.4010    -1.2080     1.3860 ha         1 4GD       0.146500
     35 H11         -6.0590    -1.1920    -0.4360 ha         1 4GD       0.135500
     36 H12         -5.5910     0.0340    -2.5220 ha         1 4GD       0.134000
     37 H13         -3.4640     1.2520    -2.7890 ha         1 4GD       0.135500
     38 H14         -1.8010     1.2440    -0.9710 ha         1 4GD       0.146500
@<TRIPOS>BOND
     1    12    11 2   
     2    12     7 1   
     3    11    10 1   
     4     6     7 1   
     5     6     5 2   
     6     7     8 1   
     7    10     9 2   
     8     5     4 1   
     9     8     9 1   
    10     8     4 2   
    11     4     2 1   
    12     2     3 2   
    13     2     1 1   
    14    23    24 ar  
    15    23    22 ar  
    16     1    13 1   
    17    24    19 ar  
    18    22    21 ar  
    19    13    17 1   
    20    13    14 2   
    21    19    17 1   
    22    19    20 ar  
    23    17    16 1   
    24    14    15 1   
    25    21    20 ar  
    26    16    15 2   
    27    15    18 1   
    28     1    25 1   
    29     5    26 1   
    30    10    27 1   
    31    11    28 1   
    32    12    29 1   
    33    14    30 1   
    34    18    31 1   
    35    18    32 1   
    36    18    33 1   
    37    20    34 1   
    38    21    35 1   
    39    22    36 1   
    40    23    37 1   
    41    24    38 1   
@<TRIPOS>SUBSTRUCTURE
     1 4GD         1 TEMP              0 ****  ****    0 ROOT
