@<TRIPOS>MOLECULE
molecule
   41    43     1     0     0
SMALL
bcc


@<TRIPOS>ATOM
      1 C5           0.0000     0.0000     0.0000 ca         1 4GE      -0.087000
      2 C6           1.3810     0.0000     0.0000 ca         1 4GE       0.028400
      3 Cl1          2.2470     0.0020    -1.5040 cl         1 4GE      -0.123400
      4 C1           2.0750     0.0000     1.1970 ca         1 4GE      -0.142000
      5 C2           1.3910    -0.0010     2.4000 ca         1 4GE      -0.124000
      6 C3           0.0120    -0.0010     2.4140 ca         1 4GE      -0.144000
      7 C4          -0.6950    -0.0010     1.2100 ca         1 4GE      -0.066500
      8 C7          -2.1730    -0.0000     1.2170 cc         1 4GE       0.397000
      9 N8          -2.9560    -0.0010     2.3310 na         1 4GE      -0.276900
     10 N11         -2.9400     0.0060     0.1500 nd         1 4GE      -0.632000
     11 C10         -4.2270     0.0040     0.5220 cd         1 4GE       0.358800
     12 C13         -5.3970     0.0090    -0.3800 c          1 4GE       0.798100
     13 O15         -6.5200     0.0060     0.0810 o          1 4GE      -0.816800
     14 O14         -5.2180     0.0170    -1.7150 o          1 4GE      -0.816800
     15 C9          -4.2610     0.0000     1.9120 cc         1 4GE      -0.276200
     16 C16         -5.4630    -0.0010     2.7640 c          1 4GE       0.745700
     17 O18         -5.8170    -1.0270     3.3140 o          1 4GE      -0.624100
     18 N17         -6.1680     1.1340     2.9360 n          1 4GE      -0.464800
     19 C21         -5.8050     2.3420     2.1900 c3         1 4GE       0.096300
     20 C19         -7.2970     1.1610     3.8690 c3         1 4GE       0.159300
     21 C20         -6.8080     1.5560     5.2390 ca         1 4GE      -0.101300
     22 C22         -6.7740     2.8890     5.6030 ca         1 4GE      -0.113500
     23 C23         -6.3250     3.2510     6.8600 ca         1 4GE      -0.139500
     24 C24         -5.9110     2.2800     7.7510 ca         1 4GE      -0.138000
     25 C25         -5.9440     0.9470     7.3880 ca         1 4GE      -0.139500
     26 C26         -6.3970     0.5840     6.1330 ca         1 4GE      -0.113500
     27 H5          -0.5430     0.0000    -0.9380 ha         1 4GE       0.184000
     28 H1           3.1580     0.0000     1.1930 ha         1 4GE       0.131000
     29 H2           1.9410    -0.0010     3.3340 ha         1 4GE       0.125000
     30 H3          -0.5210    -0.0020     3.3570 ha         1 4GE       0.123000
     31 H8          -2.6370    -0.0040     3.2800 hn         1 4GE       0.286700
     32 H211        -4.8510     2.7120     2.5450 h1         1 4GE       0.044033
     33 H212        -6.5640     3.1000     2.3390 h1         1 4GE       0.044033
     34 H213        -5.7320     2.1070     1.1350 h1         1 4GE       0.044033
     35 H191        -8.0310     1.8800     3.5270 h1         1 4GE       0.066700
     36 H192        -7.7500     0.1780     3.9170 h1         1 4GE       0.066700
     37 H22         -7.1000     3.6500     4.9040 ha         1 4GE       0.141500
     38 H26         -6.4240    -0.4610     5.8480 ha         1 4GE       0.141500
     39 H23         -6.2990     4.2960     7.1450 ha         1 4GE       0.120500
     40 H24         -5.5570     2.5640     8.7350 ha         1 4GE       0.117000
     41 H25         -5.6210     0.1870     8.0880 ha         1 4GE       0.120500
@<TRIPOS>BOND
     1     1     2 ar
     2     1     7 ar
     3     2     3 1
     4     2     4 ar
     5     4     5 ar
     6     5     6 ar
     7     6     7 ar
     8     7     8 1
     9     8     9 1
    10     8    10 2
    11     9    15 1
    12    10    11 1
    13    11    12 1
    14    11    15 2
    15    12    13 1
    16    12    14 1
    17    15    16 1
    18    16    17 2
    19    16    18 1
    20    18    19 1
    21    18    20 1
    22    20    21 1
    23    21    22 ar
    24    21    26 ar
    25    22    23 ar
    26    23    24 ar
    27    24    25 ar
    28    25    26 ar
    29     1    27 1
    30     4    28 1
    31     5    29 1
    32     6    30 1
    33     9    31 1
    34    19    32 1
    35    19    33 1
    36    19    34 1
    37    20    35 1
    38    20    36 1
    39    22    37 1
    40    26    38 1
    41    23    39 1
    42    24    40 1
    43    25    41 1
@<TRIPOS>SUBSTRUCTURE
     1 4GE         1 TEMP              0 ****  ****    0 ROOT
