@<TRIPOS>MOLECULE
4GE
   41    43     1     0     0
SMALL
bcc


@<TRIPOS>ATOM
      1 C5           0.0000     0.0000     0.0000 ca         1 4GE      -0.072000
      2 C6           1.3810     0.0000     0.0000 ca         1 4GE      -0.025600
      3 Cl1          2.2470     0.0020    -1.5040 cl         1 4GE      -0.048400
      4 C1           2.0750     0.0000     1.1970 ca         1 4GE      -0.130000
      5 C2           1.3910    -0.0010     2.4000 ca         1 4GE      -0.091000
      6 C3           0.0120    -0.0010     2.4140 ca         1 4GE      -0.137000
      7 C4          -0.6950    -0.0010     1.2100 ca         1 4GE      -0.051500
      8 C7          -2.1730    -0.0000     1.2170 cc         1 4GE       0.169000
      9 N8          -2.9560    -0.0010     2.3310 na         1 4GE       0.282100
     10 N11         -2.9400     0.0060     0.1500 nd         1 4GE      -0.540000
     11 C10         -4.2270     0.0040     0.5220 cd         1 4GE       0.333800
     12 C13         -5.3970     0.0090    -0.3800 c          1 4GE       0.889100
     13 O15         -6.5200     0.0060     0.0810 o          1 4GE      -0.872800
     14 O14         -5.2180     0.0170    -1.7150 o          1 4GE      -0.872800
     15 C9          -4.2610     0.0000     1.9120 cc         1 4GE      -0.480200
     16 C16         -5.4630    -0.0010     2.7640 c          1 4GE       0.692700
     17 O18         -5.8170    -1.0270     3.3140 o          1 4GE      -0.674100
     18 N17         -6.1680     1.1340     2.9360 n          1 4GE      -0.117800
     19 C21         -5.8050     2.3420     2.1900 c3         1 4GE       0.061300
     20 C19         -7.2970     1.1610     3.8690 c3         1 4GE       0.107300
     21 C20         -6.8080     1.5560     5.2390 ca         1 4GE      -0.109300
     22 C22         -6.7740     2.8890     5.6030 ca         1 4GE      -0.088000
     23 C23         -6.3250     3.2510     6.8600 ca         1 4GE      -0.113500
     24 C24         -5.9110     2.2800     7.7510 ca         1 4GE      -0.113000
     25 C25         -5.9440     0.9470     7.3880 ca         1 4GE      -0.113500
     26 C26         -6.3970     0.5840     6.1330 ca         1 4GE      -0.088000
     27 H5          -0.5430     0.0000    -0.9380 ha         1 4GE       0.153000
     28 H1           3.1580     0.0000     1.1930 ha         1 4GE       0.105000
     29 H2           1.9410    -0.0010     3.3340 ha         1 4GE       0.095000
     30 H3          -0.5210    -0.0020     3.3570 ha         1 4GE       0.097000
     31 H8          -2.6370    -0.0040     3.2800 hn         1 4GE       0.108700
     32 H211        -4.8510     2.7120     2.5450 h1         1 4GE       0.016700
     33 H212        -6.5640     3.1000     2.3390 h1         1 4GE       0.016700
     34 H213        -5.7320     2.1070     1.1350 h1         1 4GE       0.016700
     35 H191        -8.0310     1.8800     3.5270 h1         1 4GE       0.037700
     36 H192        -7.7500     0.1780     3.9170 h1         1 4GE       0.037700
     37 H22         -7.1000     3.6500     4.9040 ha         1 4GE       0.118000
     38 H26         -6.4240    -0.4610     5.8480 ha         1 4GE       0.118000
     39 H23         -6.2990     4.2960     7.1450 ha         1 4GE       0.096000
     40 H24         -5.5570     2.5640     8.7350 ha         1 4GE       0.093000
     41 H25         -5.6210     0.1870     8.0880 ha         1 4GE       0.096000
@<TRIPOS>BOND
     1     1     2 ar  
     2     1     7 ar  
     3     1    27 1   
     4     2     3 1   
     5     2     4 ar  
     6     4     5 ar  
     7     4    28 1   
     8     5     6 ar  
     9     5    29 1   
    10     6     7 ar  
    11     6    30 1   
    12     7     8 1   
    13     8     9 1   
    14     8    10 2   
    15     9    15 1   
    16     9    31 1   
    17    10    11 1   
    18    11    12 1   
    19    11    15 2   
    20    12    13 1   
    21    12    14 1   
    22    15    16 1   
    23    16    17 2   
    24    16    18 1   
    25    18    19 1   
    26    18    20 1   
    27    19    32 1   
    28    19    33 1   
    29    19    34 1   
    30    20    21 1   
    31    20    35 1   
    32    20    36 1   
    33    21    22 ar  
    34    21    26 ar  
    35    22    23 ar  
    36    22    37 1   
    37    23    24 ar  
    38    23    39 1   
    39    24    25 ar  
    40    24    40 1   
    41    25    26 ar  
    42    25    41 1   
    43    26    38 1   
@<TRIPOS>SUBSTRUCTURE
     1 4GE         1 TEMP              0 ****  ****    0 ROOT
