@<TRIPOS>MOLECULE
molecule
   66    71     1     0     0
SMALL
bcc


@<TRIPOS>ATOM
      1 N01          0.0000     0.0000     0.0000 ns         1 4GF      -0.460100
      2 C02          1.3480     0.0000     0.0000 c          1 4GF       0.716300
      3 O03          1.9570     0.0000     1.0550 o          1 4GF      -0.566100
      4 C04          2.0810     0.0020    -1.2690 cc         1 4GF      -0.398800
      5 C05          1.5210     0.0030    -2.5590 cc         1 4GF       0.440500
      6 N06          2.4890     0.0050    -3.4370 nd         1 4GF      -0.568100
      7 N07          3.7220     0.0040    -2.7730 na         1 4GF       0.048200
      8 C08          3.4800     0.0080    -1.4300 cc         1 4GF       0.463500
      9 N09          4.4870     0.0100    -0.5550 nc         1 4GF      -0.640000
     10 C10          5.7370     0.0070    -0.9650 cd         1 4GF       0.473200
     11 C11          6.0260     0.0030    -2.3340 cd         1 4GF      -0.317300
     12 C12          5.0060     0.0060    -3.2300 cc         1 4GF       0.017700
     13 C13         -0.6970    -0.0020     1.2070 cc         1 4GF       0.070300
     14 C14         -0.1550    -0.1220     2.4510 cd         1 4GF      -0.338300
     15 C15         -1.1970    -0.0750     3.3800 cd         1 4GF       0.358600
     16 N16         -2.3250     0.0680     2.7300 nc         1 4GF      -0.496800
     17 N17         -2.0430     0.1230     1.3600 na         1 4GF       0.112300
     18 C18         -1.0490    -0.1730     4.8760 c3         1 4GF      -0.086000
     19 C19         -1.0100    -1.6460     5.2910 c3         1 4GF      -0.072400
     20 C20         -0.7990    -1.7390     6.8040 c3         1 4GF       0.160800
     21 N21          0.4620    -1.0770     7.1650 n3         1 4GF      -0.726600
     22 C22          0.4300     0.3490     6.8180 c3         1 4GF       0.160800
     23 C23          0.2550     0.5050     5.3060 c3         1 4GF      -0.072400
     24 C24          0.7670    -1.2660     8.5890 c3         1 4GF       0.167500
     25 C25          0.8960    -2.7610     8.8880 c3         1 4GF      -0.090600
     26 C26          2.0840    -0.5630     8.9260 c3         1 4GF      -0.090600
     27 C27         -2.9810     0.2770     0.3280 ca         1 4GF      -0.008200
     28 C28         -4.1370    -0.4970     0.3150 ca         1 4GF       0.151900
     29 C29         -5.0590    -0.3430    -0.7040 ca         1 4GF      -0.154000
     30 C30         -4.8320     0.5800    -1.7080 ca         1 4GF      -0.022300
     31 C31         -3.6830     1.3500    -1.6980 ca         1 4GF      -0.139000
     32 C32         -2.7610     1.2050    -0.6790 ca         1 4GF      -0.130000
     33 F33         -4.3580    -1.3990     1.2970 f          1 4GF      -0.115900
     34 C34         -5.8380     0.7460    -2.8180 cx         1 4GF      -0.096400
     35 C35         -5.3630     0.4810    -4.2480 cx         1 4GF      -0.129900
     36 C36         -5.6360     1.9140    -3.7860 cx         1 4GF      -0.129900
     37 H1          -0.5000    -0.0390    -0.8660 hn         1 4GF       0.320500
     38 H2           0.4620     0.0020    -2.7870 h4         1 4GF       0.061800
     39 H3           6.5430     0.0050    -0.2410 h4         1 4GF       0.045100
     40 H4           7.0540     0.0010    -2.6750 ha         1 4GF       0.164000
     41 H5           5.2110     0.0030    -4.2940 h4         1 4GF       0.181000
     42 H6           0.8980    -0.2350     2.6790 ha         1 4GF       0.204000
     43 H7          -1.8860     0.3160     5.3610 hc         1 4GF       0.062700
     44 H8          -1.9490    -2.1200     5.0280 hc         1 4GF       0.057700
     45 H9          -0.1930    -2.1430     4.7810 hc         1 4GF       0.057700
     46 H10         -0.7540    -2.7810     7.0970 h1         1 4GF       0.034200
     47 H11         -1.6200    -1.2500     7.3130 h1         1 4GF       0.034200
     48 H13          1.3600     0.8140     7.1220 h1         1 4GF       0.034200
     49 H14         -0.4000     0.8240     7.3270 h1         1 4GF       0.034200
     50 H15          1.0890     0.0380     4.7960 hc         1 4GF       0.057700
     51 H16          0.2140     1.5580     5.0540 hc         1 4GF       0.057700
     52 H17         -0.0310    -0.8460     9.1880 h1         1 4GF       0.019700
     53 H18          1.4660    -2.8990     9.7990 hc         1 4GF       0.038867
     54 H19          1.4040    -3.2520     8.0660 hc         1 4GF       0.038867
     55 H20         -0.0910    -3.1910     9.0110 hc         1 4GF       0.038867
     56 H21          2.4910    -0.9780     9.8400 hc         1 4GF       0.038867
     57 H22          2.7890    -0.7110     8.1170 hc         1 4GF       0.038867
     58 H23          1.9030     0.4960     9.0590 hc         1 4GF       0.038867
     59 H24         -5.9590    -0.9450    -0.7150 ha         1 4GF       0.154000
     60 H25         -3.5100     2.0730    -2.4850 ha         1 4GF       0.143000
     61 H26         -1.8620     1.8090    -0.6730 ha         1 4GF       0.148000
     62 H27         -6.8730     0.4880    -2.6280 hc         1 4GF       0.092700
     63 H28         -6.1030     0.0560    -4.9150 hc         1 4GF       0.077950
     64 H29         -4.3180     0.2140    -4.3510 hc         1 4GF       0.077950
     65 H30         -4.7580     2.5230    -3.6070 hc         1 4GF       0.077950
     66 H31         -6.5430     2.3640    -4.1710 hc         1 4GF       0.077950
@<TRIPOS>BOND
     1    12    11 2
     2    12     7 1
     3    11    10 1
     4     7     6 1
     5     7     8 1
     6     6     5 2
     7    10     9 2
     8     5     4 1
     9     8     9 1
    10     8     4 2
    11     4     2 1
    12     2     3 2
    13     2     1 1
    14    34    30 1
    15    34    35 1
    16    34    36 1
    17    31    30 ar
    18    31    32 ar
    19     1    13 1
    20    30    29 ar
    21    35    36 1
    22    32    27 ar
    23    29    28 ar
    24    13    17 1
    25    13    14 2
    26    27    28 ar
    27    27    17 1
    28    28    33 1
    29    17    16 1
    30    14    15 1
    31    16    15 2
    32    15    18 1
    33    18    19 1
    34    18    23 1
    35    19    20 1
    36    23    22 1
    37    20    21 1
    38    22    21 1
    39    21    24 1
    40    24    26 1
    41    24    25 1
    42     1    37 1
    43     5    38 1
    44    10    39 1
    45    11    40 1
    46    12    41 1
    47    14    42 1
    48    18    43 1
    49    19    44 1
    50    19    45 1
    51    20    46 1
    52    20    47 1
    53    22    48 1
    54    22    49 1
    55    23    50 1
    56    23    51 1
    57    24    52 1
    58    25    53 1
    59    25    54 1
    60    25    55 1
    61    26    56 1
    62    26    57 1
    63    26    58 1
    64    29    59 1
    65    31    60 1
    66    32    61 1
    67    34    62 1
    68    35    63 1
    69    35    64 1
    70    36    65 1
    71    36    66 1
@<TRIPOS>SUBSTRUCTURE
     1 4GF         1 TEMP              0 ****  ****    0 ROOT
