@<TRIPOS>MOLECULE
4GF
   66    71     1     0     0
SMALL
bcc


@<TRIPOS>ATOM
      1 N01          0.0000     0.0000     0.0000 ns         1 4GF      -0.007100
      2 C02          1.3480     0.0000     0.0000 c          1 4GF       0.628300
      3 O03          1.9570     0.0000     1.0550 o          1 4GF      -0.609100
      4 C04          2.0810     0.0020    -1.2690 cc         1 4GF      -0.431800
      5 C05          1.5210     0.0030    -2.5590 cc         1 4GF       0.510500
      6 N06          2.4890     0.0050    -3.4370 nd         1 4GF      -0.736100
      7 N07          3.7220     0.0040    -2.7730 na         1 4GF       0.556200
      8 C08          3.4800     0.0080    -1.4300 cd         1 4GF       0.245500
      9 N09          4.4870     0.0100    -0.5550 nd         1 4GF      -0.493000
     10 C10          5.7370     0.0070    -0.9650 cc         1 4GF       0.417200
     11 C11          6.0260     0.0030    -2.3340 cc         1 4GF      -0.239300
     12 C12          5.0060     0.0060    -3.2300 cd         1 4GF      -0.172300
     13 C13         -0.6970    -0.0020     1.2070 cc         1 4GF      -0.243700
     14 C14         -0.1550    -0.1220     2.4510 cd         1 4GF      -0.331300
     15 C15         -1.1970    -0.0750     3.3800 cd         1 4GF       0.386600
     16 N16         -2.3250     0.0680     2.7300 nc         1 4GF      -0.646800
     17 N17         -2.0430     0.1230     1.3600 na         1 4GF       0.576300
     18 C18         -1.0490    -0.1730     4.8760 c3         1 4GF      -0.061000
     19 C19         -1.0100    -1.6460     5.2910 c3         1 4GF      -0.025900
     20 C20         -0.7990    -1.7390     6.8040 c3         1 4GF       0.145300
     21 N21          0.4620    -1.0770     7.1650 n3         1 4GF      -0.535600
     22 C22          0.4300     0.3490     6.8180 c3         1 4GF       0.145300
     23 C23          0.2550     0.5050     5.3060 c3         1 4GF      -0.025900
     24 C24          0.7670    -1.2660     8.5890 c3         1 4GF       0.129500
     25 C25          0.8960    -2.7610     8.8880 c3         1 4GF      -0.004600
     26 C26          2.0840    -0.5630     8.9260 c3         1 4GF      -0.004600
     27 C27         -2.9810     0.2770     0.3280 ca         1 4GF      -0.170200
     28 C28         -4.1370    -0.4970     0.3150 ca         1 4GF       0.139900
     29 C29         -5.0590    -0.3430    -0.7040 ca         1 4GF      -0.119000
     30 C30         -4.8320     0.5800    -1.7080 ca         1 4GF      -0.013300
     31 C31         -3.6830     1.3500    -1.6980 ca         1 4GF      -0.116000
     32 C32         -2.7610     1.2050    -0.6790 ca         1 4GF      -0.094000
     33 F33         -4.3580    -1.3990     1.2970 f          1 4GF      -0.110900
     34 C34         -5.8380     0.7460    -2.8180 cx         1 4GF      -0.065400
     35 C35         -5.3630     0.4810    -4.2480 cx         1 4GF      -0.075400
     36 C36         -5.6360     1.9140    -3.7860 cx         1 4GF      -0.075400
     37 H1          -0.5000    -0.0390    -0.8660 hn         1 4GF       0.164500
     38 H2           0.4620     0.0020    -2.7870 h4         1 4GF       0.009800
     39 H3           6.5430     0.0050    -0.2410 h4         1 4GF      -0.003900
     40 H4           7.0540     0.0010    -2.6750 ha         1 4GF       0.132000
     41 H5           5.2110     0.0030    -4.2940 h4         1 4GF       0.149000
     42 H6           0.8980    -0.2350     2.6790 ha         1 4GF       0.194000
     43 H7          -1.8860     0.3160     5.3610 hc         1 4GF       0.036700
     44 H8          -1.9490    -2.1200     5.0280 hc         1 4GF       0.027950
     45 H9          -0.1930    -2.1430     4.7810 hc         1 4GF       0.027950
     46 H10         -0.7540    -2.7810     7.0970 h1         1 4GF       0.011450
     47 H11         -1.6200    -1.2500     7.3130 h1         1 4GF       0.011450
     48 H13          1.3600     0.8140     7.1220 h1         1 4GF       0.011450
     49 H14         -0.4000     0.8240     7.3270 h1         1 4GF       0.011450
     50 H15          1.0890     0.0380     4.7960 hc         1 4GF       0.027950
     51 H16          0.2140     1.5580     5.0540 hc         1 4GF       0.027950
     52 H17         -0.0310    -0.8460     9.1880 h1         1 4GF       0.003700
     53 H18          1.4660    -2.8990     9.7990 hc         1 4GF       0.008867
     54 H19          1.4040    -3.2520     8.0660 hc         1 4GF       0.008867
     55 H20         -0.0910    -3.1910     9.0110 hc         1 4GF       0.008867
     56 H21          2.4910    -0.9780     9.8400 hc         1 4GF       0.008867
     57 H22          2.7890    -0.7110     8.1170 hc         1 4GF       0.008867
     58 H23          1.9030     0.4960     9.0590 hc         1 4GF       0.008867
     59 H24         -5.9590    -0.9450    -0.7150 ha         1 4GF       0.128000
     60 H25         -3.5100     2.0730    -2.4850 ha         1 4GF       0.123000
     61 H26         -1.8620     1.8090    -0.6730 ha         1 4GF       0.118000
     62 H27         -6.8730     0.4880    -2.6280 hc         1 4GF       0.065700
     63 H28         -6.1030     0.0560    -4.9150 hc         1 4GF       0.049450
     64 H29         -4.3180     0.2140    -4.3510 hc         1 4GF       0.049450
     65 H30         -4.7580     2.5230    -3.6070 hc         1 4GF       0.049450
     66 H31         -6.5430     2.3640    -4.1710 hc         1 4GF       0.049450
@<TRIPOS>BOND
     1     1     2 1   
     2     1    13 1   
     3     1    37 1   
     4     2     3 2   
     5     2     4 1   
     6     4     5 1   
     7     4     8 2   
     8     5     6 2   
     9     5    38 1   
    10     6     7 1   
    11     7     8 1   
    12     7    12 1   
    13     8     9 1   
    14     9    10 2   
    15    10    11 1   
    16    10    39 1   
    17    11    12 2   
    18    11    40 1   
    19    12    41 1   
    20    13    14 2   
    21    13    17 1   
    22    14    15 1   
    23    14    42 1   
    24    15    16 2   
    25    15    18 1   
    26    16    17 1   
    27    17    27 1   
    28    18    19 1   
    29    18    23 1   
    30    18    43 1   
    31    19    20 1   
    32    19    44 1   
    33    19    45 1   
    34    20    21 1   
    35    20    46 1   
    36    20    47 1   
    37    21    22 1   
    38    21    24 1   
    39    22    23 1   
    40    22    48 1   
    41    22    49 1   
    42    23    50 1   
    43    23    51 1   
    44    24    25 1   
    45    24    26 1   
    46    24    52 1   
    47    25    53 1   
    48    25    54 1   
    49    25    55 1   
    50    26    56 1   
    51    26    57 1   
    52    26    58 1   
    53    27    28 ar  
    54    27    32 ar  
    55    28    29 ar  
    56    28    33 1   
    57    29    30 ar  
    58    29    59 1   
    59    30    31 ar  
    60    30    34 1   
    61    31    32 ar  
    62    31    60 1   
    63    32    61 1   
    64    34    35 1   
    65    34    36 1   
    66    34    62 1   
    67    35    36 1   
    68    35    63 1   
    69    35    64 1   
    70    36    65 1   
    71    36    66 1   
@<TRIPOS>SUBSTRUCTURE
     1 4GF         1 TEMP              0 ****  ****    0 ROOT
