@<TRIPOS>MOLECULE
4GG
   39    40     1     0     0
SMALL
bcc


@<TRIPOS>ATOM
      1 O            0.0000     0.0000     0.0000 o          1 4GG      -0.623100
      2 C12          1.2130     0.0000     0.0000 c          1 4GG       0.608100
      3 C13          1.9660     0.0000     1.3050 c3         1 4GG      -0.003300
      4 N1           1.8870    -0.0060    -1.1670 n          1 4GG      -0.157800
      5 C1           3.3520    -0.0050    -1.1670 c3         1 4GG       0.080300
      6 C2           1.1550    -0.0120    -2.4360 c3         1 4GG       0.164300
      7 C3           0.9040    -1.4350    -2.8640 cc         1 4GG      -0.359600
      8 C11         -0.1760    -2.1840    -2.5430 cd         1 4GG      -0.231300
      9 N3          -0.0220    -3.3980    -3.1200 na         1 4GG       0.634300
     10 N2           1.1930    -3.3910    -3.8180 nd         1 4GG      -0.665800
     11 C4           1.7450    -2.2130    -3.6680 cc         1 4GG       0.407200
     12 C5          -0.9180    -4.4720    -3.0360 ca         1 4GG      -0.147200
     13 C10         -0.6340    -5.6680    -3.6810 ca         1 4GG      -0.104500
     14 C9          -1.5190    -6.7250    -3.5960 ca         1 4GG      -0.083000
     15 C8          -2.6880    -6.5930    -2.8680 ca         1 4GG      -0.103000
     16 C7          -2.9740    -5.4020    -2.2240 ca         1 4GG      -0.083000
     17 C6          -2.0900    -4.3440    -2.3010 ca         1 4GG      -0.104500
     18 H1           2.5890     0.8850     1.3620 h1         1 4GG       0.046700
     19 H2           2.5890    -0.8850     1.3620 h1         1 4GG       0.046700
     20 H4           3.7140    -0.9050    -0.6840 h1         1 4GG       0.008700
     21 H5           3.7130     0.0260    -2.1880 h1         1 4GG       0.008700
     22 H6           3.7130     0.8630    -0.6290 h1         1 4GG       0.008700
     23 H7           0.2080     0.4990    -2.3090 h1         1 4GG       0.032700
     24 H8           1.7410     0.4950    -3.1930 h1         1 4GG       0.032700
     25 H9          -1.0140    -1.8690    -1.9330 h4         1 4GG       0.169000
     26 H10          2.6920    -1.8980    -4.0880 h4         1 4GG       0.001100
     27 H11          0.2820    -5.7720    -4.2510 ha         1 4GG       0.126000
     28 H12         -1.2980    -7.6580    -4.0990 ha         1 4GG       0.107500
     29 H13         -3.3820    -7.4220    -2.8050 ha         1 4GG       0.105000
     30 H14         -3.8890    -5.3020    -1.6530 ha         1 4GG       0.107500
     31 H15         -2.3140    -3.4120    -1.7960 ha         1 4GG       0.126000
     32 S1           0.7870    -0.0000     2.6840 ss         1 4GG      -0.347200
     33 C15          1.8650     0.0000     4.1430 c3         1 4GG       0.071700
     34 C16          1.0080     0.0010     5.4100 c3         1 4GG       0.029900
     35 H3           2.4910     0.8850     4.1290 h1         1 4GG       0.027700
     36 H16          2.4910    -0.8840     4.1300 h1         1 4GG       0.027700
     37 H17          0.3830     0.8860     5.4230 hc         1 4GG       0.012033
     38 H18          1.6510     0.0000     6.2820 hc         1 4GG       0.012033
     39 H19          0.3820    -0.8830     5.4230 hc         1 4GG       0.012033
@<TRIPOS>BOND
     1     1     2 2   
     2     2     3 1   
     3     2     4 1   
     4     3    18 1   
     5     3    19 1   
     6     3    32 1   
     7     4     5 1   
     8     4     6 1   
     9     5    20 1   
    10     5    21 1   
    11     5    22 1   
    12     6     7 1   
    13     6    23 1   
    14     6    24 1   
    15     7     8 2   
    16     7    11 1   
    17     8     9 1   
    18     8    25 1   
    19     9    10 1   
    20     9    12 1   
    21    10    11 2   
    22    11    26 1   
    23    12    13 ar  
    24    12    17 ar  
    25    13    14 ar  
    26    13    27 1   
    27    14    15 ar  
    28    14    28 1   
    29    15    16 ar  
    30    15    29 1   
    31    16    17 ar  
    32    16    30 1   
    33    17    31 1   
    34    32    33 1   
    35    33    34 1   
    36    33    35 1   
    37    33    36 1   
    38    34    37 1   
    39    34    38 1   
    40    34    39 1   
@<TRIPOS>SUBSTRUCTURE
     1 4GG         1 TEMP              0 ****  ****    0 ROOT
