@<TRIPOS>MOLECULE
molecule
   39    40     1     0     0
SMALL
bcc


@<TRIPOS>ATOM
      1 O            0.0000     0.0000     0.0000 o          1 4GG      -0.593100
      2 C12          1.2130     0.0000     0.0000 c          1 4GG       0.681100
      3 C13          1.9660     0.0000     1.3050 c3         1 4GG      -0.079300
      4 N1           1.8870    -0.0060    -1.1670 n          1 4GG      -0.489800
      5 C1           3.3520    -0.0050    -1.1670 c3         1 4GG       0.094300
      6 C2           1.1550    -0.0120    -2.4360 c3         1 4GG       0.195300
      7 C3           0.9040    -1.4350    -2.8640 cc         1 4GG      -0.340600
      8 C11         -0.1760    -2.1840    -2.5430 cd         1 4GG      -0.072300
      9 N3          -0.0220    -3.3980    -3.1200 na         1 4GG       0.151300
     10 N2           1.1930    -3.3910    -3.8180 nc         1 4GG      -0.510800
     11 C4           1.7450    -2.2130    -3.6680 cd         1 4GG       0.345200
     12 C5          -0.9180    -4.4720    -3.0360 ca         1 4GG       0.036800
     13 C10         -0.6340    -5.6680    -3.6810 ca         1 4GG      -0.142000
     14 C9          -1.5190    -6.7250    -3.5960 ca         1 4GG      -0.108500
     15 C8          -2.6880    -6.5930    -2.8680 ca         1 4GG      -0.141000
     16 C7          -2.9740    -5.4020    -2.2240 ca         1 4GG      -0.108500
     17 C6          -2.0900    -4.3440    -2.3010 ca         1 4GG      -0.142000
     18 H1           2.5890     0.8850     1.3620 h1         1 4GG       0.073200
     19 H2           2.5890    -0.8850     1.3620 h1         1 4GG       0.073200
     20 H4           3.7140    -0.9050    -0.6840 h1         1 4GG       0.038700
     21 H5           3.7130     0.0260    -2.1880 h1         1 4GG       0.038700
     22 H6           3.7130     0.8630    -0.6290 h1         1 4GG       0.038700
     23 H7           0.2080     0.4990    -2.3090 h1         1 4GG       0.064700
     24 H8           1.7410     0.4950    -3.1930 h1         1 4GG       0.064700
     25 H9          -1.0140    -1.8690    -1.9330 h4         1 4GG       0.192000
     26 H10          2.6920    -1.8980    -4.0880 h4         1 4GG       0.046100
     27 H11          0.2820    -5.7720    -4.2510 ha         1 4GG       0.149500
     28 H12         -1.2980    -7.6580    -4.0990 ha         1 4GG       0.136500
     29 H13         -3.3820    -7.4220    -2.8050 ha         1 4GG       0.133000
     30 H14         -3.8890    -5.3020    -1.6530 ha         1 4GG       0.136500
     31 H15         -2.3140    -3.4120    -1.7960 ha         1 4GG       0.149500
     32 S1           0.7870    -0.0000     2.6840 ss         1 4GG      -0.272200
     33 C15          1.8650     0.0000     4.1430 c3         1 4GG      -0.007300
     34 C16          1.0080     0.0010     5.4100 c3         1 4GG      -0.075100
     35 H3           2.4910     0.8850     4.1290 h1         1 4GG       0.052200
     36 H16          2.4910    -0.8840     4.1300 h1         1 4GG       0.052200
     37 H17          0.3830     0.8860     5.4230 hc         1 4GG       0.045700
     38 H18          1.6510     0.0000     6.2820 hc         1 4GG       0.045700
     39 H19          0.3820    -0.8830     5.4230 hc         1 4GG       0.045700
@<TRIPOS>BOND
     1    16    15 ar
     2    16    17 ar
     3    15    14 ar
     4    17    12 ar
     5    14    13 ar
     6    12    13 ar
     7    12     9 1
     8    10     9 1
     9    10    11 2
    10     9     8 1
    11    11     7 1
    12     8     7 2
    13     7     6 1
    14     6     4 1
    15     4     5 1
    16     4     2 1
    17     2     1 2
    18     2     3 1
    19     3    18 1
    20     3    19 1
    21     5    20 1
    22     5    21 1
    23     5    22 1
    24     6    23 1
    25     6    24 1
    26     8    25 1
    27    11    26 1
    28    13    27 1
    29    14    28 1
    30    15    29 1
    31    16    30 1
    32    17    31 1
    33     3    32 1
    34    32    33 1
    35    33    34 1
    36    33    35 1
    37    33    36 1
    38    34    37 1
    39    34    38 1
    40    34    39 1
@<TRIPOS>SUBSTRUCTURE
     1 4GG         1 TEMP              0 ****  ****    0 ROOT
