@<TRIPOS>MOLECULE
4GH
  158   158     1     0     0
SMALL
bcc


@<TRIPOS>ATOM
      1 C1          2.4920   -0.5340    1.2620 c3        1 4GH      0.111400
      2 C2          3.8990   -0.0380    0.8970 c3        1 4GH      0.075500
      3 N2          4.7530    0.0900    2.1280 n4        1 4GH     -0.683800
      4 C3          3.8150    1.3320    0.1440 c3        1 4GH      0.153100
      5 O3          2.6710    1.3180   -0.6760 oh        1 4GH     -0.571800
      6 C4          5.0330    1.5070   -0.7590 c3        1 4GH     -0.090400
      7 C5          5.1740    2.9490   -1.2000 c3        1 4GH     -0.080400
      8 C6          6.3570    3.1200   -2.1290 c3        1 4GH     -0.079400
      9 C7          6.5110    4.5650   -2.5530 c3        1 4GH     -0.079400
     10 C8          7.6960    4.7380   -3.4790 c3        1 4GH     -0.079400
     11 C9          7.8550    6.1840   -3.9000 c3        1 4GH     -0.079400
     12 C10         9.0410    6.3580   -4.8240 c3        1 4GH     -0.079400
     13 C11         9.2030    7.8040   -5.2410 c3        1 4GH     -0.079400
     14 C12        10.3910    7.9790   -6.1630 c3        1 4GH     -0.079400
     15 C13        10.5550    9.4250   -6.5790 c3        1 4GH     -0.079400
     16 C14        11.7430    9.6000   -7.5000 c3        1 4GH     -0.079400
     17 C15        11.9080   11.0470   -7.9150 c3        1 4GH     -0.079400
     18 C16        13.0970   11.2220   -8.8360 c3        1 4GH     -0.079400
     19 C17        13.2630   12.6680   -9.2510 c3        1 4GH     -0.080400
     20 C18        14.4450   12.8480  -10.1680 c3        1 4GH     -0.093100
     21 C1A         0.5320    0.2870    2.3540 c3        1 4GH      0.341900
     22 O1A         1.8930    0.5240    2.0040 os        1 4GH     -0.478600
     23 C2A        -0.2180    1.6300    2.3170 c3        1 4GH      0.132100
     24 O2A         0.1160    2.2360    1.0810 oh        1 4GH     -0.610800
     25 C3A         0.1700    2.5450    3.4920 c3        1 4GH      0.111100
     26 O3A        -0.7830    3.5940    3.4740 oh        1 4GH     -0.595800
     27 C4A         0.1420    1.7650    4.8010 c3        1 4GH     -0.145400
     28 C5M         1.0460    0.5520    4.6770 c3        1 4GH      0.113100
     29 C6A         1.0510   -0.3140    5.9400 c3        1 4GH      0.133400
     30 O6A         0.6010   -0.3160    3.6230 os        1 4GH     -0.438600
     31 CAA         5.1360   -1.2560    2.7260 c         1 4GH      0.549100
     32 OAA         5.6610   -2.0440    1.9580 o         1 4GH     -0.409100
     33 CAB         4.8250   -1.4140    4.1840 c3        1 4GH     -0.163400
     34 CAC         5.2590   -2.7830    4.6770 c3        1 4GH     -0.077400
     35 CAD         4.9200   -2.9340    6.1460 c3        1 4GH     -0.085400
     36 CAE         5.2750   -4.3210    6.6380 c3        1 4GH     -0.078400
     37 CAF         4.9630   -4.4710    8.1120 c3        1 4GH     -0.078400
     38 CAG         5.3150   -5.8580    8.6060 c3        1 4GH     -0.079400
     39 CAH         5.0110   -6.0070   10.0810 c3        1 4GH     -0.078400
     40 CAI         5.3670   -7.3920   10.5770 c3        1 4GH     -0.079400
     41 CAJ         5.0690   -7.5400   12.0540 c3        1 4GH     -0.078400
     42 CAK         5.4290   -8.9230   12.5500 c3        1 4GH     -0.079400
     43 CAL         5.1370   -9.0690   14.0280 c3        1 4GH     -0.078400
     44 CAM         5.5010  -10.4510   14.5260 c3        1 4GH     -0.079400
     45 CAN         5.2140  -10.5960   16.0060 c3        1 4GH     -0.079400
     46 CAO         5.5810  -11.9770   16.5040 c3        1 4GH     -0.079400
     47 CAP         5.2980  -12.1200   17.9840 c3        1 4GH     -0.079400
     48 CAQ         5.6690  -13.5000   18.4830 c3        1 4GH     -0.079400
     49 CAR         5.3890  -13.6420   19.9640 c3        1 4GH     -0.079400
     50 CAS         5.7620  -15.0210   20.4640 c3        1 4GH     -0.079400
     51 CAT         5.4840  -15.1620   21.9450 c3        1 4GH     -0.079400
     52 CAU         5.8590  -16.5410   22.4460 c3        1 4GH     -0.079400
     53 CAV         5.5830  -16.6820   23.9270 c3        1 4GH     -0.079400
     54 CAW         5.9590  -18.0600   24.4280 c3        1 4GH     -0.079400
     55 CAX         5.6840  -18.2000   25.9100 c3        1 4GH     -0.079400
     56 CAY         6.0590  -19.5780   26.4120 c3        1 4GH     -0.080400
     57 CAZ         5.7880  -19.7220   27.8870 c3        1 4GH     -0.093100
     58 H1          2.5210   -1.4680    1.8830 h1        1 4GH      0.079700
     59 H1A         1.9230   -0.7250    0.3110 h1        1 4GH      0.079700
     60 H2          4.3860   -0.8050    0.2220 hx        1 4GH      0.133700
     61 HN2         4.2320    0.6390    2.8220 hn        1 4GH      0.459800
     62 H3          3.7480    2.1670    0.8970 h1        1 4GH      0.051700
     63 HO3         1.9180    1.6220   -0.1400 ho        1 4GH      0.446000
     64 H4          5.9580    1.1830   -0.2150 hc        1 4GH      0.054700
     65 H4A         4.9170    0.8500   -1.6620 hc        1 4GH      0.054700
     66 H5          5.2990    3.6120   -0.3030 hc        1 4GH      0.052200
     67 H5A         4.2310    3.2650   -1.7210 hc        1 4GH      0.052200
     68 H6          6.2190    2.4750   -3.0360 hc        1 4GH      0.044200
     69 H6A         7.2940    2.7760   -1.6160 hc        1 4GH      0.044200
     70 H7          6.6450    5.2120   -1.6460 hc        1 4GH      0.043200
     71 H7A         5.5760    4.9070   -3.0690 hc        1 4GH      0.043200
     72 H8          8.6310    4.3910   -2.9660 hc        1 4GH      0.042200
     73 H8A         7.5590    4.0950   -4.3890 hc        1 4GH      0.042200
     74 H9          7.9890    6.8280   -2.9910 hc        1 4GH      0.041200
     75 H9A         6.9220    6.5300   -4.4170 hc        1 4GH      0.041200
     76 H10         9.9750    6.0090   -4.3080 hc        1 4GH      0.040700
     77 H10A        8.9070    5.7170   -5.7340 hc        1 4GH      0.040700
     78 H11         9.3360    8.4460   -4.3310 hc        1 4GH      0.040200
     79 H11A        8.2710    8.1530   -5.7590 hc        1 4GH      0.040200
     80 H12        11.3230    7.6280   -5.6470 hc        1 4GH      0.040200
     81 H12A       10.2570    7.3380   -7.0750 hc        1 4GH      0.040200
     82 H13         9.6230    9.7750   -7.0970 hc        1 4GH      0.040200
     83 H13A       10.6870   10.0660   -5.6680 hc        1 4GH      0.040200
     84 H14        12.6750    9.2490   -6.9830 hc        1 4GH      0.040200
     85 H14A       11.6100    8.9600   -8.4120 hc        1 4GH      0.040200
     86 H15        12.0400   11.6870   -7.0040 hc        1 4GH      0.039700
     87 H15A       10.9760   11.3980   -8.4330 hc        1 4GH      0.039700
     88 H16        14.0280   10.8710   -8.3190 hc        1 4GH      0.039700
     89 H16A       12.9640   10.5830   -9.7480 hc        1 4GH      0.039700
     90 H17        13.3930   13.3070   -8.3380 hc        1 4GH      0.038700
     91 H17A       12.3300   13.0180   -9.7670 hc        1 4GH      0.038700
     92 H18        15.3890   12.5280   -9.6620 hc        1 4GH      0.033700
     93 H18A       14.5490   13.9200  -10.4610 hc        1 4GH      0.033700
     94 H18B       14.3220   12.2390  -11.0950 hc        1 4GH      0.033700
     95 H1AA        0.0380   -0.4720    1.6840 h2        1 4GH      0.107700
     96 H2A        -1.3250    1.4180    2.3610 h1        1 4GH      0.086700
     97 HO2A       -0.3920    3.0590    1.0340 ho        1 4GH      0.443000
     98 H3A         1.1980    2.9680    3.3110 h1        1 4GH      0.047700
     99 HO3A       -0.6280    4.1410    4.2530 ho        1 4GH      0.422000
    100 H4AA       -0.9080    1.4440    5.0260 hc        1 4GH      0.077200
    101 H4AB        0.4930    2.4140    5.6430 hc        1 4GH      0.077200
    102 HO5A        1.4260   -2.0600    5.2050 ho        1 4GH      0.418000
    103 H5M         2.0990    0.8760    4.4380 h1        1 4GH      0.031700
    104 H6AA        0.0110   -0.6430    6.1940 h1        1 4GH      0.072200
    105 H6AB        1.4930    0.2660    6.7930 h1        1 4GH      0.072200
    106 HAB         5.3580   -0.6140    4.7660 hc        1 4GH      0.111700
    107 HABA        3.7150   -1.2830    4.3560 hc        1 4GH      0.111700
    108 HAC         4.7420   -3.5810    4.0810 hc        1 4GH      0.065700
    109 HACA        6.3620   -2.9130    4.5200 hc        1 4GH      0.065700
    110 HAD         3.8250   -2.7410    6.3050 hc        1 4GH      0.055700
    111 HADA        5.4830   -2.1680    6.7430 hc        1 4GH      0.055700
    112 HAE         4.7020   -5.0880    6.0520 hc        1 4GH      0.046200
    113 HAEA        6.3660   -4.5170    6.4620 hc        1 4GH      0.046200
    114 HAF         3.8730   -4.2740    8.2880 hc        1 4GH      0.042700
    115 HAFA        5.5380   -3.7060    8.6980 hc        1 4GH      0.042700
    116 HAG         4.7370   -6.6230    8.0240 hc        1 4GH      0.042200
    117 HAGA        6.4040   -6.0580    8.4240 hc        1 4GH      0.042200
    118 HAH         3.9220   -5.8110   10.2630 hc        1 4GH      0.040200
    119 HAHA        5.5870   -5.2400   10.6640 hc        1 4GH      0.040200
    120 HAI         4.7880   -8.1590    9.9980 hc        1 4GH      0.041200
    121 HAIA        6.4560   -7.5900   10.3910 hc        1 4GH      0.041200
    122 HAJ         5.6460   -6.7710   12.6330 hc        1 4GH      0.040200
    123 HAJA        3.9800   -7.3450   12.2400 hc        1 4GH      0.040200
    124 HAK         6.5180   -9.1200   12.3610 hc        1 4GH      0.040700
    125 HAKA        4.8500   -9.6930   11.9750 hc        1 4GH      0.040700
    126 HAL         5.7140   -8.2980   14.6040 hc        1 4GH      0.039700
    127 HALA        4.0480   -8.8760   14.2180 hc        1 4GH      0.039700
    128 HAM         6.5890  -10.6460   14.3340 hc        1 4GH      0.040200
    129 HAMA        4.9210  -11.2230   13.9540 hc        1 4GH      0.040200
    130 HAN         4.1250  -10.4040   16.1980 hc        1 4GH      0.039700
    131 HANA        5.7910   -9.8230   16.5780 hc        1 4GH      0.039700
    132 HAO         5.0020  -12.7500   15.9340 hc        1 4GH      0.039700
    133 HAOA        6.6690  -12.1700   16.3090 hc        1 4GH      0.039700
    134 HAP         5.8760  -11.3460   18.5540 hc        1 4GH      0.039700
    135 HAPA        4.2100  -11.9290   18.1790 hc        1 4GH      0.039700
    136 HAQ         5.0890  -14.2740   17.9150 hc        1 4GH      0.039700
    137 HAQA        6.7570  -13.6920   18.2860 hc        1 4GH      0.039700
    138 HAR         5.9680  -12.8670   20.5320 hc        1 4GH      0.039700
    139 HARA        4.3010  -13.4520   20.1610 hc        1 4GH      0.039700
    140 HAS         6.8500  -15.2120   20.2650 hc        1 4GH      0.039700
    141 HASA        5.1820  -15.7960   19.8970 hc        1 4GH      0.039700
    142 HAT         6.0640  -14.3860   22.5120 hc        1 4GH      0.039700
    143 HATA        4.3970  -14.9730   22.1440 hc        1 4GH      0.039700
    144 HAU         5.2790  -17.3170   21.8800 hc        1 4GH      0.039700
    145 HAUA        6.9470  -16.7310   22.2460 hc        1 4GH      0.039700
    146 HAV         4.4950  -16.4920   24.1270 hc        1 4GH      0.039700
    147 HAVA        6.1630  -15.9050   24.4930 hc        1 4GH      0.039700
    148 HAW         5.3780  -18.8360   23.8630 hc        1 4GH      0.039700
    149 HAWA        7.0460  -18.2500   24.2270 hc        1 4GH      0.039700
    150 HAX         6.2640  -17.4240   26.4750 hc        1 4GH      0.039700
    151 HAXA        4.5960  -18.0110   26.1100 hc        1 4GH      0.039700
    152 HAY         7.1470  -19.7660   26.2090 hc        1 4GH      0.038700
    153 HAYA        5.4790  -20.3530   25.8440 hc        1 4GH      0.038700
    154 HAZ         4.7050  -19.5630   28.1060 hc        1 4GH      0.033033
    155 HAZA        6.0720  -20.7440   28.2360 hc        1 4GH      0.033033
    156 HAZB        6.3770  -18.9740   28.4710 hc        1 4GH      0.033033
    157 O5A         1.9070   -1.4230    5.7490 oh        1 4GH     -0.612800
    158 H22         5.6070    0.5990    1.8710 hn        1 4GH      0.459800
@<TRIPOS>BOND
     1    1    2 1   
     2    1   22 1   
     3    1   58 1   
     4    1   59 1   
     5    2    3 1   
     6    2    4 1   
     7    2   60 1   
     8    3   31 1   
     9    3   61 1   
    10    3  158 1   
    11    4    5 1   
    12    4    6 1   
    13    4   62 1   
    14    5   63 1   
    15    6    7 1   
    16    6   64 1   
    17    6   65 1   
    18    7    8 1   
    19    7   66 1   
    20    7   67 1   
    21    8    9 1   
    22    8   68 1   
    23    8   69 1   
    24    9   10 1   
    25    9   70 1   
    26    9   71 1   
    27   10   11 1   
    28   10   72 1   
    29   10   73 1   
    30   11   12 1   
    31   11   74 1   
    32   11   75 1   
    33   12   13 1   
    34   12   76 1   
    35   12   77 1   
    36   13   14 1   
    37   13   78 1   
    38   13   79 1   
    39   14   15 1   
    40   14   80 1   
    41   14   81 1   
    42   15   16 1   
    43   15   82 1   
    44   15   83 1   
    45   16   17 1   
    46   16   84 1   
    47   16   85 1   
    48   17   18 1   
    49   17   86 1   
    50   17   87 1   
    51   18   19 1   
    52   18   88 1   
    53   18   89 1   
    54   19   20 1   
    55   19   90 1   
    56   19   91 1   
    57   20   92 1   
    58   20   93 1   
    59   20   94 1   
    60   21   22 1   
    61   21   23 1   
    62   21   30 1   
    63   21   95 1   
    64   23   24 1   
    65   23   25 1   
    66   23   96 1   
    67   24   97 1   
    68   25   26 1   
    69   25   27 1   
    70   25   98 1   
    71   26   99 1   
    72   27   28 1   
    73   27  100 1   
    74   27  101 1   
    75   28   29 1   
    76   28   30 1   
    77   28  103 1   
    78   29  104 1   
    79   29  105 1   
    80   29  157 1   
    81   31   32 2   
    82   31   33 1   
    83   33   34 1   
    84   33  106 1   
    85   33  107 1   
    86   34   35 1   
    87   34  108 1   
    88   34  109 1   
    89   35   36 1   
    90   35  110 1   
    91   35  111 1   
    92   36   37 1   
    93   36  112 1   
    94   36  113 1   
    95   37   38 1   
    96   37  114 1   
    97   37  115 1   
    98   38   39 1   
    99   38  116 1   
   100   38  117 1   
   101   39   40 1   
   102   39  118 1   
   103   39  119 1   
   104   40   41 1   
   105   40  120 1   
   106   40  121 1   
   107   41   42 1   
   108   41  122 1   
   109   41  123 1   
   110   42   43 1   
   111   42  124 1   
   112   42  125 1   
   113   43   44 1   
   114   43  126 1   
   115   43  127 1   
   116   44   45 1   
   117   44  128 1   
   118   44  129 1   
   119   45   46 1   
   120   45  130 1   
   121   45  131 1   
   122   46   47 1   
   123   46  132 1   
   124   46  133 1   
   125   47   48 1   
   126   47  134 1   
   127   47  135 1   
   128   48   49 1   
   129   48  136 1   
   130   48  137 1   
   131   49   50 1   
   132   49  138 1   
   133   49  139 1   
   134   50   51 1   
   135   50  140 1   
   136   50  141 1   
   137   51   52 1   
   138   51  142 1   
   139   51  143 1   
   140   52   53 1   
   141   52  144 1   
   142   52  145 1   
   143   53   54 1   
   144   53  146 1   
   145   53  147 1   
   146   54   55 1   
   147   54  148 1   
   148   54  149 1   
   149   55   56 1   
   150   55  150 1   
   151   55  151 1   
   152   56   57 1   
   153   56  152 1   
   154   56  153 1   
   155   57  154 1   
   156   57  155 1   
   157   57  156 1   
   158  102  157 1   
@<TRIPOS>SUBSTRUCTURE
     1 4GH         1 TEMP              0 ****  ****    0 ROOT
