@<TRIPOS>MOLECULE
4GI
   53    55     1     0     0
SMALL
bcc


@<TRIPOS>ATOM
      1 C            0.0000     0.0000     0.0000 ca         1 4GI      -0.153000
      2 N           -0.8710     1.5530     4.4930 n3         1 4GI      -0.521500
      3 O           -0.1100    -0.7700     4.8300 o          1 4GI      -0.582300
      4 S           -0.8830    -0.0010     3.9190 sy         1 4GI       1.063200
      5 C1           1.3830     0.0000     0.0000 ca         1 4GI       0.038000
      6 O1          -2.2350    -0.3000     3.6010 o          1 4GI      -0.582300
      7 C2           2.0740     0.0000     1.1980 ca         1 4GI      -0.490200
      8 C3           1.3820    -0.0010     2.3950 ca         1 4GI       0.090000
      9 C4          -0.0010     0.0000     2.3940 ca         1 4GI      -0.180500
     10 C5          -0.6920     0.0000     1.1960 ca         1 4GI       0.079000
     11 C6           0.2440     2.0390     5.3170 c3         1 4GI       0.240800
     12 C7           0.8020     3.3190     4.6880 c3         1 4GI      -0.049400
     13 C8          -0.3330     4.3300     4.5080 c3         1 4GI      -0.019400
     14 C9          -1.3910     3.7490     3.5650 c3         1 4GI      -0.040400
     15 C10         -1.9730     2.4740     4.1830 c3         1 4GI       0.168500
     16 C11         -2.9110     1.8250     3.1970 c          1 4GI       0.729100
     17 C12         -5.0300     0.9540     2.5430 c3         1 4GI       0.229400
     18 C13         -6.4340     0.7550     3.1160 c3         1 4GI      -0.038400
     19 C14         -7.3260     0.0950     2.0620 c3         1 4GI       0.044900
     20 H1          -0.5410    -0.0000    -0.9380 ha         1 4GI       0.121000
     21 H2           1.9250     0.0000    -0.9380 ha         1 4GI       0.130000
     22 H4           1.9230    -0.0010     3.3330 ha         1 4GI       0.140000
     23 H5          -1.7750    -0.0000     1.1960 ha         1 4GI       0.164000
     24 H6           1.0210     1.2850     5.3550 h1         1 4GI       0.029200
     25 H7          -0.1110     2.2520     6.3180 h1         1 4GI       0.029200
     26 H8           1.2350     3.0860     3.7220 hc         1 4GI       0.022700
     27 H9           1.5600     3.7390     5.3380 hc         1 4GI       0.022700
     28 H10         -0.7840     4.5390     5.4700 hc         1 4GI       0.018700
     29 H11          0.0640     5.2440     4.0830 hc         1 4GI       0.018700
     30 H12         -0.9330     3.5120     2.6120 hc         1 4GI       0.030200
     31 H13         -2.1820     4.4740     3.4220 hc         1 4GI       0.030200
     32 H14         -2.5060     2.7220     5.0920 h1         1 4GI       0.041700
     33 H15         -5.0840     1.5880     1.6670 h1         1 4GI       0.015200
     34 H16         -4.6130    -0.0080     2.2670 h1         1 4GI       0.015200
     35 H17         -6.8520     1.7160     3.3910 hc         1 4GI       0.026200
     36 H18         -6.3800     0.1200     3.9920 hc         1 4GI       0.026200
     37 H19         -6.9090    -0.8660     1.7870 hc         1 4GI       0.020200
     38 H20         -7.3800     0.7290     1.1860 hc         1 4GI       0.020200
     39 C15         -8.7100    -0.1020     2.6270 ca         1 4GI      -0.212600
     40 C16         -9.6730     0.8860     2.4830 ca         1 4GI      -0.066000
     41 C17        -10.9320     0.6620     3.0190 ca         1 4GI      -0.220300
     42 C18        -11.1840    -0.5290     3.6730 ca         1 4GI       0.401200
     43 N19        -10.2430    -1.4460     3.7900 nb         1 4GI      -0.579000
     44 C20         -9.0370    -1.2690     3.2890 ca         1 4GI       0.409200
     45 H21         -9.4470     1.8100     1.9650 ha         1 4GI       0.110000
     46 H22        -11.7090     1.4110     2.9260 ha         1 4GI       0.112000
     47 H23        -12.1640    -0.7110     4.0960 h4         1 4GI      -0.020900
     48 H25         -8.2900    -2.0460     3.4050 h4         1 4GI      -0.015900
     49 N1           3.5530    -0.0010     1.1990 no         1 4GI       1.051200
     50 O4           4.1630    -0.0020     0.1440 o          1 4GI      -0.450500
     51 O5           4.1620    -0.0010     2.2540 o          1 4GI      -0.450500
     52 O2          -2.5160     1.5270     2.0950 o          1 4GI      -0.626000
     53 O3          -4.1840     1.5800     3.5430 os         1 4GI      -0.389900
@<TRIPOS>BOND
     1     1     5 ar  
     2     1    10 ar  
     3     1    20 1   
     4     2     4 1   
     5     2    11 1   
     6     2    15 1   
     7     3     4 2   
     8     4     6 2   
     9     4     9 1   
    10     5     7 ar  
    11     5    21 1   
    12     7     8 ar  
    13     7    49 1   
    14     8     9 ar  
    15     8    22 1   
    16     9    10 ar  
    17    10    23 1   
    18    11    12 1   
    19    11    24 1   
    20    11    25 1   
    21    12    13 1   
    22    12    26 1   
    23    12    27 1   
    24    13    14 1   
    25    13    28 1   
    26    13    29 1   
    27    14    15 1   
    28    14    30 1   
    29    14    31 1   
    30    15    16 1   
    31    15    32 1   
    32    16    52 2   
    33    16    53 1   
    34    17    18 1   
    35    17    33 1   
    36    17    34 1   
    37    17    53 1   
    38    18    19 1   
    39    18    35 1   
    40    18    36 1   
    41    19    37 1   
    42    19    38 1   
    43    19    39 1   
    44    39    40 ar  
    45    39    44 ar  
    46    40    41 ar  
    47    40    45 1   
    48    41    42 ar  
    49    41    46 1   
    50    42    43 ar  
    51    42    47 1   
    52    43    44 ar  
    53    44    48 1   
    54    49    50 1   
    55    49    51 1   
@<TRIPOS>SUBSTRUCTURE
     1 4GI         1 TEMP              0 ****  ****    0 ROOT
