@<TRIPOS>MOLECULE
molecule
   46    50     1     0     0
SMALL
bcc


@<TRIPOS>ATOM
      1 CAC          0.0000     0.0000     0.0000 c3         1 4GK       0.034600
      2 NAZ          1.4650     0.0000     0.0000 na         1 4GK      -0.125300
      3 CAW          2.2830     0.0000     1.1110 ca         1 4GK      -0.121200
      4 CAH          2.0440     0.0000     2.4880 ca         1 4GK      -0.097000
      5 CAG          3.0600     0.0010     3.3860 ca         1 4GK      -0.161300
      6 CAU          4.4050     0.0000     2.9630 ca         1 4GK       0.416600
      7 NAM          5.4040     0.0010     3.8500 nb         1 4GK      -0.681000
      8 CAE          6.6590     0.0010     3.4640 ca         1 4GK       0.423200
      9 CAD          7.0110    -0.0000     2.1200 ca         1 4GK      -0.260300
     10 CAF          6.0330    -0.0000     1.1600 ca         1 4GK      -0.066000
     11 CAV          4.6970    -0.0000     1.5770 ca         1 4GK      -0.101300
     12 CAX          3.5940    -0.0000     0.6210 ca         1 4GK       0.102400
     13 NAO          3.5200    -0.0010    -0.7220 nc         1 4GK      -0.588100
     14 CAT          2.2710    -0.0050    -1.0940 cd         1 4GK       0.397800
     15 CAK          1.7920    -0.0080    -2.5230 c3         1 4GK      -0.075700
     16 CAJ          1.6360    -1.4520    -3.0060 c3         1 4GK      -0.064700
     17 CAS          1.1570    -1.4540    -4.4350 cc         1 4GK       0.565300
     18 NAN          1.9400    -1.4510    -5.5020 nc         1 4GK      -0.439300
     19 NAP         -0.1030    -1.4640    -4.8110 nd         1 4GK      -0.606100
     20 NBA         -0.1120    -1.4620    -6.2100 na         1 4GK       0.191000
     21 CAQ         -1.0900    -1.4670    -7.1550 cd         1 4GK      -0.106900
     22 CAA         -2.5400    -1.4760    -6.7440 c3         1 4GK      -0.044800
     23 CAY          1.2000    -1.4540    -6.6020 cd         1 4GK      -0.101600
     24 CAR          1.4970    -1.4490    -7.9770 cd         1 4GK       0.457600
     25 CAB          2.9310    -1.4410    -8.4410 c3         1 4GK      -0.131400
     26 NAL          0.5200    -1.4530    -8.8530 nc         1 4GK      -0.654000
     27 CAI         -0.7550    -1.4640    -8.4660 cc         1 4GK       0.356200
     28 H1          -0.3610    -0.9730    -0.3100 h1         1 4GK       0.055700
     29 H2          -0.3610     0.7550    -0.6870 h1         1 4GK       0.055700
     30 H3          -0.3610     0.2180     0.9980 h1         1 4GK       0.055700
     31 H4           1.0220    -0.0020     2.8460 ha         1 4GK       0.126000
     32 H5           2.8350     0.0010     4.4460 ha         1 4GK       0.151000
     33 H6           7.4410     0.0010     4.2140 h4         1 4GK       0.021100
     34 H7           8.0550    -0.0000     1.8320 ha         1 4GK       0.138000
     35 H8           6.2870    -0.0010     0.1070 ha         1 4GK       0.156000
     36 H9           0.8360     0.4980    -2.5840 hc         1 4GK       0.073200
     37 H10          2.5140     0.5050    -3.1460 hc         1 4GK       0.073200
     38 H11          0.9140    -1.9650    -2.3830 hc         1 4GK       0.076200
     39 H12          2.5910    -1.9580    -2.9450 hc         1 4GK       0.076200
     40 H13         -3.1660    -1.4480    -7.6280 hc         1 4GK       0.061367
     41 H14         -2.7510    -2.3770    -6.1810 hc         1 4GK       0.061367
     42 H15         -2.7470    -0.6090    -6.1280 hc         1 4GK       0.061367
     43 H16          2.9600    -1.4980    -9.5220 hc         1 4GK       0.064033
     44 H17          3.4110    -0.5260    -8.1150 hc         1 4GK       0.064033
     45 H18          3.4520    -2.2920    -8.0200 hc         1 4GK       0.064033
     46 H19         -1.5380    -1.4670    -9.2150 h4         1 4GK       0.046100
@<TRIPOS>BOND
     1    27    26 1   
     2    27    21 2   
     3    22    21 1   
     4    26    24 2   
     5    21    20 1   
     6    24    25 1   
     7    24    23 1   
     8    20    23 1   
     9    20    19 1   
    10    23    18 2   
    11    19    17 2   
    12    18    17 1   
    13    17    16 1   
    14    16    15 1   
    15    15    14 1   
    16    14    13 2   
    17    14     2 1   
    18    13    12 1   
    19     1     2 1   
    20     2     3 1   
    21    12     3 ar  
    22    12    11 ar  
    23    10    11 ar  
    24    10     9 ar  
    25     3     4 ar  
    26    11     6 ar  
    27     9     8 ar  
    28     4     5 ar  
    29     6     5 ar  
    30     6     7 ar  
    31     8     7 ar  
    32     1    28 1   
    33     1    29 1   
    34     1    30 1   
    35     4    31 1   
    36     5    32 1   
    37     8    33 1   
    38     9    34 1   
    39    10    35 1   
    40    15    36 1   
    41    15    37 1   
    42    16    38 1   
    43    16    39 1   
    44    22    40 1   
    45    22    41 1   
    46    22    42 1   
    47    25    43 1   
    48    25    44 1   
    49    25    45 1   
    50    27    46 1   
@<TRIPOS>SUBSTRUCTURE
     1 4GK         1 TEMP              0 ****  ****    0 ROOT
