@<TRIPOS>MOLECULE
4GM
   32    33     1     0     0
SMALL
bcc


@<TRIPOS>ATOM
      1 C8           0.0000     0.0000     0.0000 ca         1 4GM      -0.118000
      2 C9           1.3820     0.0000     0.0000 ca         1 4GM      -0.040000
      3 C2          -2.6890     0.7980     7.3110 ca         1 4GM       0.098000
      4 C7          -0.6930    -0.0020     1.1970 ca         1 4GM      -0.050000
      5 C10          2.0750     0.0000     1.1960 ca         1 4GM      -0.162000
      6 C3          -2.0540     0.5490     6.1240 ca         1 4GM      -0.317300
      7 C12         -2.0590     3.1150     7.0720 ca         1 4GM       0.505200
      8 C1          -2.6990     2.1120     7.8020 ca         1 4GM      -0.461900
      9 C6          -0.0060    -0.0060     2.3950 ca         1 4GM      -0.186300
     10 C11          1.3810    -0.0000     2.3970 ca         1 4GM       0.155100
     11 C4          -1.4400     1.6000     5.4440 ca         1 4GM       0.558200
     12 C5          -0.7620    -0.0080     3.6980 c3         1 4GM       0.215100
     13 N2          -1.4640     2.8330     5.9310 nb         1 4GM      -0.632000
     14 N           -3.3810     3.6970     9.5360 nz         1 4GM       0.202600
     15 N1          -0.7950     1.3520     4.2450 nu         1 4GM      -0.387900
     16 O           -3.9320     1.5520     9.7040 o          1 4GM      -0.463100
     17 O1           2.0600    -0.0000     3.5740 oh         1 4GM      -0.502100
     18 H1          -0.5410     0.0020    -0.9390 ha         1 4GM       0.117000
     19 H2           1.9230     0.0010    -0.9390 ha         1 4GM       0.114000
     20 H3          -3.1760    -0.0010     7.8570 ha         1 4GM       0.132000
     21 H4          -1.7770    -0.0040     1.1940 ha         1 4GM       0.108000
     22 H5           3.1580     0.0020     1.1950 ha         1 4GM       0.122000
     23 H6          -2.0280    -0.4550     5.7180 ha         1 4GM       0.148000
     24 H7          -2.0600     4.1330     7.4410 h4         1 4GM      -0.052900
     25 H8          -1.7740    -0.3530     3.5280 h1         1 4GM       0.033700
     26 H9          -0.2680    -0.6680     4.4010 h1         1 4GM       0.033700
     27 H10         -3.8250     4.2950     8.8690 hn         1 4GM       0.242800
     28 H11         -2.4380     4.0010     9.6820 hn         1 4GM       0.242800
     29 H12         -0.3670     2.1040     3.7420 hn         1 4GM       0.315800
     30 H13          2.6780    -0.7120     3.5800 ho         1 4GM       0.418000
     31 HN3         -3.8800     3.7350    10.4030 hn         1 4GM       0.242800
     32 C           -3.3780     2.4310     9.0740 c          1 4GM       0.367700
@<TRIPOS>BOND
     1     1     2 ar  
     2     1     4 ar  
     3     1    18 1   
     4     2     5 ar  
     5     2    19 1   
     6     3     6 ar  
     7     3     8 ar  
     8     3    20 1   
     9     4     9 ar  
    10     4    21 1   
    11     5    10 ar  
    12     5    22 1   
    13     6    11 ar  
    14     6    23 1   
    15     7     8 ar  
    16     7    13 ar  
    17     7    24 1   
    18     8    32 1   
    19     9    10 ar  
    20     9    12 1   
    21    10    17 1   
    22    11    13 ar  
    23    11    15 1   
    24    12    15 1   
    25    12    25 1   
    26    12    26 1   
    27    14    27 1   
    28    14    28 1   
    29    14    31 1   
    30    14    32 1   
    31    15    29 1   
    32    16    32 2   
    33    17    30 1   
@<TRIPOS>SUBSTRUCTURE
     1 4GM         1 TEMP              0 ****  ****    0 ROOT
