@<TRIPOS>MOLECULE
molecule
   34    35     1     0     0
SMALL
bcc


@<TRIPOS>ATOM
      1 C2           0.0000     0.0000     0.0000 ca         1 4GN       0.024000
      2 C3           1.3690     0.0000     0.0000 ca         1 4GN      -0.325300
      3 C11          0.0790    -0.0060     2.4110 ca         1 4GN       0.484200
      4 C1          -0.6690     0.0000     1.2330 ca         1 4GN      -0.403900
      5 C4           2.0520     0.0000     1.2150 ca         1 4GN       0.710200
      6 C           -2.1450     0.0060     1.2820 c          1 4GN       0.511700
      7 C5           4.1730    -0.0010    -0.0470 c3         1 4GN      -0.163200
      8 N2           1.3950    -0.0000     2.3670 nb         1 4GN      -0.676000
      9 N           -2.7780     0.0060     2.4720 nz         1 4GN      -0.688400
     10 N1           3.4370    -0.0010     1.2190 nu         1 4GN      -0.812900
     11 O           -2.7880     0.0110     0.2510 o          1 4GN      -0.438100
     12 C8           8.2960     0.5710    -0.7900 c3         1 4GN      -0.087400
     13 C9           7.6280    -0.8030    -1.2540 c3         1 4GN      -0.087400
     14 C7           8.0210     0.6750     0.7790 c3         1 4GN      -0.138400
     15 C10          7.0850    -1.3440    -0.1240 c3         1 4GN      -0.138400
     16 C6           6.7420    -0.0590     0.8720 c3         1 4GN       0.175300
     17 H1          -0.5420     0.0000    -0.9380 ha         1 4GN       0.168000
     18 H2           1.9110     0.0000    -0.9380 ha         1 4GN       0.173000
     19 H3          -0.4230     0.0030     3.3710 h4         1 4GN      -0.004900
     20 H4           4.3210     1.0190    -0.3790 h1         1 4GN       0.014700
     21 H5           3.6070    -0.5450    -0.7940 h1         1 4GN       0.014700
     22 H6          -2.5540    -0.8340     2.9690 hn         1 4GN       0.477467
     23 H7          -2.4830     0.7990     3.0070 hn         1 4GN       0.477467
     24 H8           3.9380     0.7750     0.8350 hn         1 4GN       0.489800
     25 H11          8.3810    -1.4660    -1.6610 hc         1 4GN       0.068700
     26 H12          6.8520    -0.6120    -1.9860 hc         1 4GN       0.068700
     27 H13          8.7990     0.1760     1.3450 hc         1 4GN       0.083700
     28 H14          7.9020     1.7070     1.0860 hc         1 4GN       0.083700
     29 H15          7.8000    -2.0040     0.3530 hc         1 4GN       0.083700
     30 H16          6.1760    -1.8800    -0.3680 hc         1 4GN       0.083700
     31 H17          5.9060     0.5090     0.4820 hc         1 4GN       0.155700
     32 H9           7.8340     1.4040    -1.3060 hc         1 4GN       0.068700
     33 HN3         -3.6860     0.4120     2.3660 hn         1 4GN       0.477467
     34 H10          9.3630     0.5500    -0.9810 hc         1 4GN       0.068700
@<TRIPOS>BOND
     1    13    12 1
     2    13    15 1
     3    12    14 1
     4    15    16 1
     5    14    16 1
     6    16     7 1
     7     7    10 1
     8    10     5 1
     9     2     5 ar
    10     2     1 ar
    11     5     8 ar
    12     1     4 ar
    13     8     3 ar
    14     4     3 ar
    15     4     6 1
    16    11     6 2
    17     6     9 1
    18     1    17 1
    19     2    18 1
    20     3    19 1
    21     7    20 1
    22     7    21 1
    23     9    22 1
    24     9    23 1
    25    10    24 1
    26    12    32 1
    27    12    34 1
    28    13    25 1
    29    13    26 1
    30    14    27 1
    31    14    28 1
    32    15    29 1
    33    15    30 1
    34    16    31 1
    35    33     9 1
@<TRIPOS>SUBSTRUCTURE
     1 4GN         1 TEMP              0 ****  ****    0 ROOT
