@<TRIPOS>MOLECULE
4GO
   31    32     1     0     0
SMALL
bcc


@<TRIPOS>ATOM
      1 C2           0.0000     0.0000     0.0000 ca         1 4GO       0.097000
      2 C3           1.3680     0.0000     0.0000 ca         1 4GO      -0.317300
      3 C10          0.0790    -0.0080     2.4110 ca         1 4GO       0.507200
      4 C1          -0.6700    -0.0010     1.2330 ca         1 4GO      -0.458900
      5 C4           2.0520     0.0000     1.2150 ca         1 4GO       0.570200
      6 C           -2.1440     0.0050     1.2840 c          1 4GO       0.367700
      7 N2           1.3950    -0.0010     2.3670 nb         1 4GO      -0.636000
      8 N           -2.7770     0.0030     2.4730 nz         1 4GO       0.202600
      9 N1           3.4370    -0.0000     1.2190 nu         1 4GO      -0.415900
     10 O           -2.7880     0.0110     0.2520 o          1 4GO      -0.460100
     11 C7           6.3940     0.0130    -1.1270 c3         1 4GO      -0.019900
     12 C8           5.6880    -1.2960    -1.5210 c3         1 4GO      -0.019900
     13 C6           5.5890     0.6120     0.0460 c3         1 4GO      -0.031400
     14 C9           4.4800    -1.4480    -0.5750 c3         1 4GO      -0.031400
     15 C5           4.1760    -0.0020    -0.1110 c3         1 4GO       0.108500
     16 H1          -0.5540     0.0030    -0.9310 ha         1 4GO       0.133000
     17 H2           1.9150     0.0010    -0.9350 ha         1 4GO       0.153000
     18 H3          -0.4260    -0.0080     3.3690 h4         1 4GO      -0.052900
     19 H4          -3.7670     0.0080     2.3250 hn         1 4GO       0.243467
     20 H5          -2.5140     0.8180     2.9920 hn         1 4GO       0.243467
     21 H6           3.9350     0.0150     2.0870 hn         1 4GO       0.314800
     22 H9           6.3650    -2.1330    -1.3950 hc         1 4GO       0.025700
     23 H10          5.3490    -1.2380    -2.5480 hc         1 4GO       0.025700
     24 H11          6.0250     0.3170     0.9920 hc         1 4GO       0.025700
     25 H12          5.5430     1.6910    -0.0390 hc         1 4GO       0.025700
     26 H13          4.7400    -2.0700     0.2730 hc         1 4GO       0.025700
     27 H14          3.6320    -1.8600    -1.1090 hc         1 4GO       0.025700
     28 H15          3.6120     0.5290    -0.8680 h1         1 4GO       0.054700
     29 H7           6.3930     0.7000    -1.9650 hc         1 4GO       0.025700
     30 HN3         -2.5110    -0.8100     2.9920 hn         1 4GO       0.243467
     31 H8           7.4090    -0.1940    -0.8110 hc         1 4GO       0.025700
@<TRIPOS>BOND
     1     1     2 ar  
     2     1     4 ar  
     3     1    16 1   
     4     2     5 ar  
     5     2    17 1   
     6     3     4 ar  
     7     3     7 ar  
     8     3    18 1   
     9     4     6 1   
    10     5     7 ar  
    11     5     9 1   
    12     6     8 1   
    13     6    10 2   
    14     8    19 1   
    15     8    20 1   
    16     8    30 1   
    17     9    15 1   
    18     9    21 1   
    19    11    12 1   
    20    11    13 1   
    21    11    29 1   
    22    11    31 1   
    23    12    14 1   
    24    12    22 1   
    25    12    23 1   
    26    13    15 1   
    27    13    24 1   
    28    13    25 1   
    29    14    15 1   
    30    14    26 1   
    31    14    27 1   
    32    15    28 1   
@<TRIPOS>SUBSTRUCTURE
     1 4GO         1 TEMP              0 ****  ****    0 ROOT
