@<TRIPOS>MOLECULE
molecule
   29    29     1     0     0
SMALL
bcc


@<TRIPOS>ATOM
      1 C1           0.0000     0.0000     0.0000 c3         1 4GP       0.289500
      2 C2           1.5300     0.0000     0.0000 c3         1 4GP       0.099100
      3 O2           2.0090    -1.1650    -0.6730 oh         1 4GP      -0.584800
      4 C3           2.0290     0.0000     1.4500 c3         1 4GP       0.107100
      5 O3           3.4500     0.1510     1.4680 oh         1 4GP      -0.616800
      6 C4           1.3760     1.1710     2.1930 c3         1 4GP       0.102100
      7 O4           1.7100     1.1040     3.5800 oh         1 4GP      -0.608800
      8 C5          -0.1430     1.0800     2.0270 c3         1 4GP       0.141100
      9 O5          -0.4850     1.1760     0.6450 os         1 4GP      -0.390600
     10 C6          -0.8080     2.2250     2.7950 c3         1 4GP       0.150400
     11 O6          -2.2280     2.0750     2.7410 oh         1 4GP      -0.583800
     12 N1          -0.4850    -0.0320    -1.3820 ns         1 4GP      -0.570900
     13 C7          -1.6060    -0.7150    -1.6870 c          1 4GP       0.569100
     14 C8          -2.1010    -0.7470    -3.0970 c          1 4GP       0.836600
     15 O7          -2.2150    -1.3030    -0.8170 o          1 4GP      -0.616100
     16 O8          -3.2220    -1.4280    -3.4020 o          1 4GP      -0.811800
     17 O9          -1.4950    -0.1590    -3.9670 o          1 4GP      -0.811800
     18 H1          -0.3580    -0.8730     0.5320 h2         1 4GP       0.087700
     19 H2           1.8900     0.8880    -0.5050 h1         1 4GP       0.048700
     20 HO2          2.6790    -0.9200    -1.2890 ho         1 4GP       0.405000
     21 H3           1.7520    -0.9320     1.9280 h1         1 4GP       0.062700
     22 HO3          3.8410    -0.5990     1.8850 ho         1 4GP       0.406000
     23 H4           1.7290     2.1060     1.7740 h1         1 4GP       0.051700
     24 HO4          2.3770     1.7420     3.7740 ho         1 4GP       0.403000
     25 H5          -0.4900     0.1310     2.4170 h1         1 4GP       0.068700
     26 H61         -0.4810     2.2050     3.8270 h1         1 4GP       0.024700
     27 H62         -0.5280     3.1710     2.3460 h1         1 4GP       0.024700
     28 HO6         -2.6340     2.7220     3.2940 ho         1 4GP       0.391000
     29 HN1         -0.0020     0.4810    -2.0940 hn         1 4GP       0.326500
@<TRIPOS>BOND
     1     1     2 1
     2     1     9 1
     3     1    12 1
     4     1    18 1
     5     2     3 1
     6     2     4 1
     7     2    19 1
     8     3    20 1
     9     4     5 1
    10     4     6 1
    11     4    21 1
    12     5    22 1
    13     6     7 1
    14     6     8 1
    15     6    23 1
    16     7    24 1
    17     8     9 1
    18     8    10 1
    19     8    25 1
    20    10    11 1
    21    10    26 1
    22    10    27 1
    23    11    28 1
    24    12    13 1
    25    12    29 1
    26    13    14 1
    27    13    15 2
    28    14    16 1
    29    14    17 1
@<TRIPOS>SUBSTRUCTURE
     1 4GP         1 TEMP              0 ****  ****    0 ROOT
