@<TRIPOS>MOLECULE
molecule
   77    80     1     0     0
SMALL
bcc


@<TRIPOS>ATOM
      1 C4           0.0000     0.0000     0.0000 ca         1 4GQ      -0.140000
      2 C5          -0.4010     9.9870    15.2650 ca         1 4GQ      -0.111000
      3 C6          -0.8850    10.3510    12.5660 ca         1 4GQ      -0.113000
      4 C7           0.3370     9.8610    12.9900 ca         1 4GQ      -0.074300
      5 C8           1.3980     0.0010     2.3980 ca         1 4GQ      -0.109300
      6 C10          0.0140    -0.0050     2.4070 ca         1 4GQ       0.091100
      7 C13         -2.7240     0.3200     2.3760 c          1 4GQ       0.668500
      8 C15         -1.9200     0.6960     3.5950 c3         1 4GQ       0.075400
      9 C17          7.7980     5.0850     7.6300 c3         1 4GQ      -0.079400
     10 C20          5.4090     4.9690     5.9360 c3         1 4GQ      -0.096400
     11 C21          5.3110     4.9000     7.4610 c3         1 4GQ       0.106700
     12 C22          1.4070     9.5320    11.9810 c3         1 4GQ      -0.038100
     13 C24          1.2720     8.0690    11.5530 c3         1 4GQ       0.162800
     14 C26          3.2070     2.7870     6.0000 c3         1 4GQ       0.129800
     15 C28          2.3050     1.4290     4.2110 c3         1 4GQ       0.165800
     16 C1           1.3830     0.0000     0.0000 ca         1 4GQ      -0.126000
     17 C2           2.0800     0.0000     1.1940 ca         1 4GQ      -0.101000
     18 C3           0.5800     9.6840    14.3390 ca         1 4GQ      -0.115000
     19 C9          -0.6880     0.0010     1.2030 ca         1 4GQ       0.000600
     20 C11         -1.6270    10.4670    14.8420 ca         1 4GQ       0.027400
     21 C12         -1.8690    10.6490    13.4900 ca         1 4GQ       0.033400
     22 C14          3.2130     4.6170     8.6680 c          1 4GQ       0.662100
     23 C16          7.8960     5.1550     6.1040 c3         1 4GQ      -0.082400
     24 C18          6.6300     5.8030     5.5410 c3         1 4GQ      -0.079400
     25 C19          6.5770     4.2510     8.0250 c3         1 4GQ      -0.096400
     26 C23          3.3150     6.0520     9.1140 c3         1 4GQ      -0.159400
     27 C25          2.2150     6.3480    10.1360 c3         1 4GQ       0.169800
     28 C27          3.9850     2.7410     7.3180 c3         1 4GQ       0.107000
     29 C29          2.1610    -0.0050     3.6980 c3         1 4GQ       0.202400
     30 N30         -2.0890     0.0050     1.2260 ns         1 4GQ      -0.464100
     31 N31          2.3150     7.7480    10.5700 n7         1 4GQ      -0.828200
     32 N33          4.1430     4.1010     7.8400 n          1 4GQ      -0.487800
     33 O34         -3.9360     0.3010     2.4290 o          1 4GQ      -0.615500
     34 O35          2.2940     3.9250     9.0530 o          1 4GQ      -0.615100
     35 O36         -0.6720    -0.0040     3.5810 os         1 4GQ      -0.327900
     36 O37          3.4580    -0.5670     3.4860 oh         1 4GQ      -0.589800
     37 Cl1         -2.8620    10.8400    16.0030 cl         1 4GQ      -0.087400
     38 Cl2         -3.4030    11.2650    12.9590 cl         1 4GQ      -0.087400
     39 H1          -0.5440     0.0000    -0.9370 ha         1 4GQ       0.138000
     40 H3          -1.0740    10.4930    11.5090 ha         1 4GQ       0.149000
     41 H4          -1.7330     1.7630     3.5870 h1         1 4GQ       0.088200
     42 H5          -2.4730     0.4270     4.4870 h1         1 4GQ       0.088200
     43 H6           8.6930     4.6230     8.0270 hc         1 4GQ       0.043950
     44 H7           7.6940     6.0860     8.0300 hc         1 4GQ       0.043950
     45 H8           4.5140     5.4310     5.5380 hc         1 4GQ       0.052200
     46 H9           5.5140     3.9670     5.5360 hc         1 4GQ       0.052200
     47 H10          5.2130     5.9020     7.8610 h1         1 4GQ       0.066700
     48 H11          2.3820     9.6890    12.4250 hc         1 4GQ       0.058200
     49 H12          1.2960    10.1730    11.1150 hc         1 4GQ       0.058200
     50 H13          0.2960     7.9110    11.1090 h1         1 4GQ       0.039700
     51 H14          1.3820     7.4270    12.4190 h1         1 4GQ       0.039700
     52 H15          2.2310     3.2230     6.1730 h1         1 4GQ       0.040700
     53 H16          3.7500     3.3890     5.2810 h1         1 4GQ       0.040700
     54 H17          1.3220     1.8550     4.3710 h1         1 4GQ       0.044700
     55 H18          2.8410     2.0210     3.4790 h1         1 4GQ       0.044700
     56 H19          1.9230    -0.0000    -0.9390 ha         1 4GQ       0.138000
     57 H20          3.1630    -0.0000     1.1870 ha         1 4GQ       0.159000
     58 H21          1.5390     9.3040    14.6710 ha         1 4GQ       0.144000
     59 H22          8.7580     5.7490     5.8260 hc         1 4GQ       0.045200
     60 H23          7.9960     4.1540     5.7040 hc         1 4GQ       0.045200
     61 H24          6.5270     6.8030     5.9450 hc         1 4GQ       0.043950
     62 H25          6.6990     5.8500     4.4610 hc         1 4GQ       0.043950
     63 H26          6.6790     3.2510     7.6220 hc         1 4GQ       0.052200
     64 H27          6.5070     4.2050     9.1050 hc         1 4GQ       0.052200
     65 H28          3.1990     6.7060     8.2580 hc         1 4GQ       0.066700
     66 H29          4.2840     6.2210     9.5680 hc         1 4GQ       0.066700
     67 H30          2.3310     5.6950    10.9920 h1         1 4GQ       0.050700
     68 H31          1.2460     6.1790     9.6820 h1         1 4GQ       0.050700
     69 H32          3.4430     2.1390     8.0360 h1         1 4GQ       0.067700
     70 H33          4.9620     2.3050     7.1450 h1         1 4GQ       0.067700
     71 H34          1.6250    -0.5980     4.4290 h1         1 4GQ       0.051700
     72 H35         -2.6120    -0.2460     0.4100 hn         1 4GQ       0.343500
     73 H36          2.2220     8.3510     9.7770 hn         1 4GQ       0.347800
     74 H40          3.4520    -1.4750     3.7410 ho         1 4GQ       0.404000
     75 N32          3.0490     1.4240     5.4770 n7         1 4GQ      -0.812200
     76 H2          -0.2100     9.8460    16.3220 ha         1 4GQ       0.150000
     77 H38          2.5620     0.8630     6.1490 hn         1 4GQ       0.352800
@<TRIPOS>BOND
     1    12    13 1   
     2    12     4 1   
     3    13    31 1   
     4     4    18 ar  
     5     4     3 ar  
     6    18     2 ar  
     7     3    21 ar  
     8     2    20 ar  
     9    31    27 1   
    10    36    29 1   
    11    21    20 ar  
    12    21    38 1   
    13    34    22 2   
    14    20    37 1   
    15    27    26 1   
    16    29     5 1   
    17    29    15 1   
    18    17     5 ar  
    19    17    16 ar  
    20     5     6 ar  
    21    22    26 1   
    22    22    32 1   
    23    16     1 ar  
    24    75    15 1   
    25    75    14 1   
    26     6    35 1   
    27     6    19 ar  
    28     1    19 ar  
    29    35     8 1   
    30    19    30 1   
    31    28    32 1   
    32    28    14 1   
    33    32    11 1   
    34    30     7 1   
    35     8     7 1   
    36     7    33 2   
    37    11    25 1   
    38    11    10 1   
    39    25     9 1   
    40    10    24 1   
    41     9    23 1   
    42    24    23 1   
    43     1    39 1   
    44     2    76 1   
    45     3    40 1   
    46     8    41 1   
    47     8    42 1   
    48     9    43 1   
    49     9    44 1   
    50    10    45 1   
    51    10    46 1   
    52    11    47 1   
    53    12    48 1   
    54    12    49 1   
    55    13    50 1   
    56    13    51 1   
    57    14    52 1   
    58    14    53 1   
    59    15    54 1   
    60    15    55 1   
    61    16    56 1   
    62    17    57 1   
    63    18    58 1   
    64    23    59 1   
    65    23    60 1   
    66    24    61 1   
    67    24    62 1   
    68    25    63 1   
    69    25    64 1   
    70    26    65 1   
    71    26    66 1   
    72    27    67 1   
    73    27    68 1   
    74    28    69 1   
    75    28    70 1   
    76    29    71 1   
    77    30    72 1   
    78    31    73 1   
    79    75    77 1   
    80    36    74 1   
@<TRIPOS>SUBSTRUCTURE
     1 4GQ         1 TEMP              0 ****  ****    0 ROOT
