@<TRIPOS>MOLECULE
4GR
   66    72     1     0     0
SMALL
bcc


@<TRIPOS>ATOM
      1 C13          0.0000     0.0000     0.0000 c3         1 4GR       0.346000
      2 C18          4.3150     0.1180    -2.3760 c2         1 4GR      -0.196000
      3 C17          3.6080     0.0060    -1.1680 c3         1 4GR       0.077000
      4 C16          2.1370     0.0050    -1.1680 c2         1 4GR       0.065000
      5 C15          1.4630     0.0000     0.0000 c2         1 4GR      -0.179000
      6 C19          5.7010     0.1170    -2.3640 c2         1 4GR      -0.031000
      7 C20          6.3830     0.0070    -1.1680 c2         1 4GR      -0.140000
      8 C21          5.6900    -0.1030     0.0280 c2         1 4GR      -0.059000
      9 C22          4.3110    -0.1050     0.0360 c2         1 4GR      -0.170000
     10 C24         -1.0540    -2.6520    -0.4460 ca         1 4GR      -0.104000
     11 C11         -2.2580    -1.9880    -0.3030 ca         1 4GR      -0.078000
     12 C34          3.8180     1.1350    -4.5670 c2         1 4GR      -0.229000
     13 C27         -2.7320    -2.3480    -2.6210 ca         1 4GR      -0.086500
     14 C33         -2.8830     1.8500     6.8890 ca         1 4GR      -0.075500
     15 Cl1          6.5630    -0.2410     1.5220 cl         1 4GR       0.077000
     16 C3          -2.6400     0.6060     2.4550 c2         1 4GR      -0.279000
     17 N4          -3.8900     0.6740     2.8250 n2         1 4GR      -0.051000
     18 C5          -3.9730     1.2670     4.0220 c2         1 4GR      -0.163000
     19 C6          -2.7090     1.5860     4.4190 c2         1 4GR      -0.259000
     20 N7          -1.8660     1.1560     3.4170 na         1 4GR       0.381000
     21 C8          -2.3190     2.2550     5.6770 ca         1 4GR      -0.016000
     22 C9          -2.1390     0.0050     1.1670 c3         1 4GR       0.050000
     23 C10         -2.6540    -1.4290     1.0390 c3         1 4GR      -0.071000
     24 N12         -0.6740     0.0000     1.1670 n7         1 4GR      -0.047000
     25 O14         -0.6090     0.0040    -1.0540 o          1 4GR      -0.387000
     26 N23          3.6230     0.2240    -3.5880 na         1 4GR       0.343000
     27 C25         -0.6900    -3.1640    -1.6770 ca         1 4GR      -0.086500
     28 C26         -1.5300    -3.0120    -2.7650 ca         1 4GR      -0.086000
     29 C28         -3.0960    -1.8350    -1.3910 ca         1 4GR      -0.104000
     30 C29         -1.3860     3.2930     5.6580 ca         1 4GR      -0.075500
     31 C30         -1.0250     3.9160     6.8340 ca         1 4GR      -0.112000
     32 C31         -1.5880     3.5090     8.0380 ca         1 4GR      -0.074000
     33 C32         -2.5170     2.4760     8.0610 ca         1 4GR      -0.112000
     34 N35          2.9560     0.8750    -5.5150 n2         1 4GR      -0.126000
     35 N36          2.2290    -0.1360    -5.2020 n2         1 4GR       0.039000
     36 N37          2.5750    -0.5930    -4.0470 n2         1 4GR      -0.235000
     37 N38         -1.2180     4.1430     9.2300 ns         1 4GR       0.138000
     38 C39         -0.9460     5.4630     9.2350 c2         1 4GR       0.322000
     39 O40         -0.9430     6.0870     8.1920 o          1 4GR      -0.457000
     40 O41         -0.6770     6.0900    10.3960 os         1 4GR      -0.266000
     41 C42         -0.3930     7.5120    10.3260 c3         1 4GR       0.098000
     42 H49          2.7490    -0.8700    -0.9870 DU         1 4GR       0.068000
     43 H48          0.8510    -0.8740    -0.1890 DU         1 4GR       0.058000
     44 H50          6.2500     0.2040    -3.2940 ha         1 4GR       0.116000
     45 H51          7.4660     0.0080    -1.1640 ha         1 4GR       0.126000
     46 H52          3.7740    -0.1920     0.9720 ha         1 4GR       0.138000
     47 H62          4.5530     1.9310    -4.5670 h5         1 4GR       0.173000
     48 H56         -3.3900    -2.2280    -3.4740 ha         1 4GR       0.101000
     49 H61         -3.6080     1.0450     6.9070 ha         1 4GR       0.110500
     50 H43         -0.8690     1.2410     3.4020 hn         1 4GR       0.076000
     51 H44         -2.4980     0.5940     0.3310 h1         1 4GR       0.119000
     52 H45         -2.2250    -2.0380     1.8250 hc         1 4GR       0.075000
     53 H46         -3.7340    -1.4340     1.1280 hc         1 4GR       0.075000
     54 H47         -0.1740    -0.0090     2.0340 hn         1 4GR       0.086000
     55 H54          0.2540    -3.6850    -1.7900 ha         1 4GR       0.101000
     56 H55         -1.2440    -3.4140    -3.7300 ha         1 4GR       0.105000
     57 H57         -4.0400    -1.3140    -1.2780 ha         1 4GR       0.098500
     58 H58         -0.9470     3.6100     4.7190 ha         1 4GR       0.110500
     59 H59         -0.3010     4.7220     6.8190 ha         1 4GR       0.130500
     60 H60         -2.9540     2.1630     9.0010 ha         1 4GR       0.130500
     61 H63         -1.1390     3.6130    10.0750 hn         1 4GR       0.084000
     62 H64         -0.2710     7.9050    11.3280 h1         1 4GR       0.041000
     63 H66          0.5180     7.6710     9.7620 h1         1 4GR       0.041000
     64 H65         -1.2140     8.0210     9.8360 h1         1 4GR       0.041000
     65 H53         -0.3960    -2.7710     0.4060 ha         1 4GR       0.098500
     66 Cl2         -5.4320     1.5770     4.9110 cl         1 4GR       0.118000
@<TRIPOS>BOND
     1     1     5 1   
     2     1    24 1   
     3     1    25 1   
     4     1    43 1   
     5     2     3 1   
     6     2     6 1   
     7     2    26 1   
     8     3     4 1   
     9     3     9 1   
    10     3    42 1   
    11     4     5 1   
    12     4    42 1   
    13     5    43 1   
    14     6     7 1   
    15     6    44 1   
    16     7     8 1   
    17     7    45 1   
    18     8     9 1   
    19     8    15 1   
    20     9    46 1   
    21    10    11 1   
    22    10    27 1   
    23    10    65 1   
    24    11    23 1   
    25    11    29 1   
    26    12    26 1   
    27    12    34 1   
    28    12    47 1   
    29    13    28 1   
    30    13    29 1   
    31    13    48 1   
    32    14    21 1   
    33    14    33 1   
    34    14    49 1   
    35    16    17 1   
    36    16    20 1   
    37    16    22 1   
    38    17    18 1   
    39    18    19 1   
    40    18    66 1   
    41    19    20 1   
    42    19    21 1   
    43    20    50 1   
    44    21    30 1   
    45    22    23 1   
    46    22    24 1   
    47    22    51 1   
    48    23    52 1   
    49    23    53 1   
    50    24    54 1   
    51    26    36 1   
    52    27    28 1   
    53    27    55 1   
    54    28    56 1   
    55    29    57 1   
    56    30    31 1   
    57    30    58 1   
    58    31    32 1   
    59    31    59 1   
    60    32    33 1   
    61    32    37 1   
    62    33    60 1   
    63    34    35 1   
    64    35    36 1   
    65    37    38 1   
    66    37    61 1   
    67    38    39 1   
    68    38    40 1   
    69    40    41 1   
    70    41    62 1   
    71    41    63 1   
    72    41    64 1   
@<TRIPOS>SUBSTRUCTURE
     1 4GR         1 TEMP              0 ****  ****    0 ROOT
