@<TRIPOS>MOLECULE
molecule
   66    70     1     0     0
SMALL
bcc


@<TRIPOS>ATOM
      1 C13          0.0000     0.0000     0.0000 c          1 4GR       0.664300
      2 C18          4.3150     0.1180    -2.3760 ca         1 4GR       0.019800
      3 C17          3.6080     0.0060    -1.1680 ca         1 4GR      -0.040800
      4 C16          2.1370     0.0050    -1.1680 ce         1 4GR      -0.032200
      5 C15          1.4630     0.0000     0.0000 cf         1 4GR      -0.235200
      6 C19          5.7010     0.1170    -2.3640 ca         1 4GR      -0.118000
      7 C20          6.3830     0.0070    -1.1680 ca         1 4GR      -0.104000
      8 C21          5.6900    -0.1030     0.0280 ca         1 4GR       0.034400
      9 C22          4.3110    -0.1050     0.0360 ca         1 4GR      -0.104000
     10 C24         -1.0540    -2.6520    -0.4460 ca         1 4GR      -0.117500
     11 C11         -2.2580    -1.9880    -0.3030 ca         1 4GR      -0.078300
     12 C34          3.8180     1.1350    -4.5670 cd         1 4GR       0.414400
     13 C27         -2.7320    -2.3480    -2.6210 ca         1 4GR      -0.119500
     14 C33         -2.8830     1.8500     6.8890 ca         1 4GR      -0.094000
     15 Cl1          6.5630    -0.2410     1.5220 cl         1 4GR      -0.088400
     16 C3          -2.6400     0.6060     2.4550 cd         1 4GR       0.404800
     17 N4          -3.8900     0.6740     2.8250 nc         1 4GR      -0.679000
     18 C5          -3.9730     1.2670     4.0220 cc         1 4GR       0.433300
     19 C6          -2.7090     1.5860     4.4190 cd         1 4GR      -0.161600
     20 N7          -1.8660     1.1560     3.4170 na         1 4GR      -0.286900
     21 C8          -2.3190     2.2550     5.6770 ca         1 4GR      -0.037000
     22 C9          -2.1390     0.0050     1.1670 c3         1 4GR       0.112400
     23 C10         -2.6540    -1.4290     1.0390 c3         1 4GR      -0.043100
     24 N12         -0.6740     0.0000     1.1670 ns         1 4GR      -0.593900
     25 O14         -0.6090     0.0040    -1.0540 o          1 4GR      -0.575100
     26 N23          3.6230     0.2240    -3.5880 na         1 4GR      -0.012500
     27 C25         -0.6900    -3.1640    -1.6770 ca         1 4GR      -0.119500
     28 C26         -1.5300    -3.0120    -2.7650 ca         1 4GR      -0.119000
     29 C28         -3.0960    -1.8350    -1.3910 ca         1 4GR      -0.117500
     30 C29         -1.3860     3.2930     5.6580 ca         1 4GR      -0.094000
     31 C30         -1.0250     3.9160     6.8340 ca         1 4GR      -0.142500
     32 C31         -1.5880     3.5090     8.0380 ca         1 4GR       0.076600
     33 C32         -2.5170     2.4760     8.0610 ca         1 4GR      -0.142500
     34 N35          2.9560     0.8750    -5.5150 nc         1 4GR      -0.407000
     35 N36          2.2290    -0.1360    -5.2020 nc         1 4GR       0.005000
     36 N37          2.5750    -0.5930    -4.0470 nd         1 4GR      -0.201800
     37 N38         -1.2180     4.1430     9.2300 ns         1 4GR      -0.463100
     38 C39         -0.9460     5.4630     9.2350 c          1 4GR       0.750100
     39 O40         -0.9430     6.0870     8.1920 o          1 4GR      -0.597000
     40 O41         -0.6770     6.0900    10.3960 os         1 4GR      -0.438900
     41 C42         -0.3930     7.5120    10.3260 c3         1 4GR       0.158700
     42 H49          1.5960     0.0100    -2.1060 ha         1 4GR       0.186000
     43 H48          2.0040    -0.0040     0.9380 ha         1 4GR       0.123000
     44 H50          6.2500     0.2040    -3.2940 ha         1 4GR       0.152000
     45 H51          7.4660     0.0080    -1.1640 ha         1 4GR       0.157000
     46 H52          3.7740    -0.1920     0.9720 ha         1 4GR       0.157000
     47 H62          4.5530     1.9310    -4.5670 h5         1 4GR       0.083100
     48 H56         -3.3900    -2.2280    -3.4740 ha         1 4GR       0.126500
     49 H61         -3.6080     1.0450     6.9070 ha         1 4GR       0.141500
     50 H43         -0.8690     1.2410     3.4020 hn         1 4GR       0.302700
     51 H44         -2.4980     0.5940     0.3310 h1         1 4GR       0.112700
     52 H45         -3.7340    -1.4340     1.1280 hc         1 4GR       0.066200
     53 H46         -2.2250    -2.0380     1.8250 hc         1 4GR       0.066200
     54 H47         -0.1740    -0.0210     2.0340 hn         1 4GR       0.302500
     55 H54          0.2540    -3.6850    -1.7900 ha         1 4GR       0.126500
     56 H55         -1.2440    -3.4140    -3.7300 ha         1 4GR       0.129000
     57 H57         -4.0400    -1.3140    -1.2780 ha         1 4GR       0.123000
     58 H58         -0.9470     3.6100     4.7190 ha         1 4GR       0.141500
     59 H59         -0.3010     4.7220     6.8190 ha         1 4GR       0.154000
     60 H60         -2.9540     2.1630     9.0010 ha         1 4GR       0.154000
     61 H63         -1.1410     3.6130    10.0750 hn         1 4GR       0.335500
     62 H64         -1.2140     8.0210     9.8360 h1         1 4GR       0.052367
     63 H66          0.5180     7.6710     9.7620 h1         1 4GR       0.052367
     64 H65         -0.2710     7.9050    11.3280 h1         1 4GR       0.052367
     65 H53         -0.3960    -2.7710     0.4060 ha         1 4GR       0.123000
     66 Cl2         -5.4320     1.5770     4.9110 cl         1 4GR      -0.129000
@<TRIPOS>BOND
     1    34    12 2
     2    34    35 1
     3    12    26 1
     4    35    36 2
     5    26    36 1
     6    26     2 1
     7     6     2 ar
     8     6     7 ar
     9     2     3 ar
    10    66    18 1
    11    10    27 ar
    12    10    11 ar
    13    17    18 1
    14    17    16 2
    15     7     8 ar
    16    23    11 1
    17    23    22 1
    18     3     4 1
    19     3     9 ar
    20    27    28 ar
    21     4     5 2
    22    18    19 2
    23    11    29 ar
    24    24    22 1
    25    24     1 1
    26     8     9 ar
    27     8    15 1
    28    16    22 1
    29    16    20 1
    30     5     1 1
    31    28    13 ar
    32    19    20 1
    33    19    21 1
    34     1    25 2
    35    29    13 ar
    36    14    21 ar
    37    14    33 ar
    38    21    30 ar
    39    33    32 ar
    40    30    31 ar
    41    32    31 ar
    42    32    37 1
    43    39    38 2
    44    37    38 1
    45    38    40 1
    46    40    41 1
    47     4    42 1
    48     5    43 1
    49     6    44 1
    50     7    45 1
    51     9    46 1
    52    10    65 1
    53    12    47 1
    54    13    48 1
    55    14    49 1
    56    20    50 1
    57    22    51 1
    58    23    52 1
    59    23    53 1
    60    24    54 1
    61    27    55 1
    62    28    56 1
    63    29    57 1
    64    30    58 1
    65    31    59 1
    66    33    60 1
    67    37    61 1
    68    41    62 1
    69    41    63 1
    70    41    64 1
@<TRIPOS>SUBSTRUCTURE
     1 4GR         1 TEMP              0 ****  ****    0 ROOT
