@<TRIPOS>MOLECULE
4GT
   32    33     1     0     0
SMALL
bcc


@<TRIPOS>ATOM
      1 C5           0.0000     0.0000     0.0000 ca         1 4GT       0.546200
      2 C4           1.3990     0.0000     0.0000 ca         1 4GT      -0.618200
      3 C15          2.0650     0.0000     1.2450 ca         1 4GT       0.653200
      4 C7           0.0180     0.0060     2.3050 ca         1 4GT       0.775900
      5 C2           2.1540    -0.0010    -1.2630 c          1 4GT       0.376700
      6 C11         -4.1560     0.0210     4.8600 c3         1 4GT      -0.018900
      7 C12         -4.1330     1.3280     4.0490 c3         1 4GT      -0.018900
      8 C10         -2.7420    -0.5870     4.7570 c3         1 4GT      -0.031900
      9 C13         -2.7060     1.4690     3.4810 c3         1 4GT      -0.031900
     10 C9          -2.1620     0.0190     3.4540 c3         1 4GT       0.095500
     11 N6          -0.6420     0.0060     1.1540 nb         1 4GT      -0.679000
     12 N14          1.3420     0.0010     2.3580 nb         1 4GT      -0.759000
     13 N16          3.4430    -0.0010     1.3030 nv         1 4GT      -0.464500
     14 N1           1.5040    -0.1200    -2.4380 nz         1 4GT       0.207600
     15 N8          -0.6970     0.0120     3.4850 nu         1 4GT      -0.365900
     16 O3           3.3660     0.1050    -1.2460 o          1 4GT      -0.507100
     17 H1          -0.5490     0.0000    -0.9340 h4         1 4GT      -0.046900
     18 H4          -4.8500     1.2730     3.2390 hc         1 4GT       0.023950
     19 H5          -4.3580     2.1680     4.6950 hc         1 4GT       0.023950
     20 H6          -2.7990    -1.6660     4.6790 hc         1 4GT       0.024200
     21 H7          -2.1410    -0.2940     5.6100 hc         1 4GT       0.024200
     22 H8          -2.1000     2.0880     4.1310 hc         1 4GT       0.024200
     23 H9          -2.7380     1.8780     2.4780 hc         1 4GT       0.024200
     24 H10         -2.5360    -0.5130     2.5880 h1         1 4GT       0.067700
     25 H11          3.9710    -0.5460     0.6500 hn         1 4GT       0.295800
     26 H12          3.9130     0.4940     2.0360 hn         1 4GT       0.295800
     27 H13          2.1690    -0.1630    -3.1840 hn         1 4GT       0.241133
     28 H14          0.9060     0.6720    -2.5700 hn         1 4GT       0.241133
     29 H15         -0.2160    -0.0160     4.3620 hn         1 4GT       0.312800
     30 H2          -4.8840    -0.6630     4.4390 hc         1 4GT       0.023950
     31 H131         0.9580    -0.9590    -2.4340 hn         1 4GT       0.241133
     32 H3          -4.3930     0.2330     5.8960 hc         1 4GT       0.023950
@<TRIPOS>BOND
     1     1     2 ar  
     2     1    11 ar  
     3     1    17 1   
     4     2     3 ar  
     5     2     5 1   
     6     3    12 ar  
     7     3    13 1   
     8     4    11 ar  
     9     4    12 ar  
    10     4    15 1   
    11     5    14 1   
    12     5    16 2   
    13     6     7 1   
    14     6     8 1   
    15     6    30 1   
    16     6    32 1   
    17     7     9 1   
    18     7    18 1   
    19     7    19 1   
    20     8    10 1   
    21     8    20 1   
    22     8    21 1   
    23     9    10 1   
    24     9    22 1   
    25     9    23 1   
    26    10    15 1   
    27    10    24 1   
    28    13    25 1   
    29    13    26 1   
    30    14    27 1   
    31    14    28 1   
    32    14    31 1   
    33    15    29 1   
@<TRIPOS>SUBSTRUCTURE
     1 4GT         1 TEMP              0 ****  ****    0 ROOT
