@<TRIPOS>MOLECULE
molecule
   25    27     1     0     0
SMALL
bcc


@<TRIPOS>ATOM
      1 C1           0.0000     0.0000     0.0000 ca         1 4GU       0.788200
      2 C2           1.4090     0.0000     0.0000 ca         1 4GU      -0.548500
      3 C3           2.0760     0.0000     1.2400 ca         1 4GU       0.533800
      4 N4          -0.7080    -0.0010    -1.1870 nu         1 4GU      -0.743300
      5 N5           3.5700     0.0000    -0.4290 nc         1 4GU      -0.499100
      6 N6          -0.6310    -0.0050     1.1690 nb         1 4GU      -0.841000
      7 N7           1.3520     0.0000     2.3590 nb         1 4GU      -0.803000
      8 N8           3.4110     0.0000     0.9630 na         1 4GU      -0.133800
      9 C9          -2.1000     0.1390    -1.1710 ca         1 4GU       0.116600
     10 C10          0.0380    -0.0110     2.3080 ca         1 4GU       0.758900
     11 C11          2.4010     0.0000    -1.0040 cd         1 4GU       0.404800
     12 C12         -2.8510    -0.2460    -2.2760 ca         1 4GU       0.085900
     13 F13         -2.2390    -0.7550    -3.3670 f          1 4GU      -0.147900
     14 C14         -2.7350     0.6560    -0.0490 ca         1 4GU      -0.123000
     15 C15         -4.2270    -0.1060    -2.2560 ca         1 4GU      -0.146000
     16 C16         -4.1090     0.7920    -0.0370 ca         1 4GU      -0.123000
     17 C17         -4.8550     0.4150    -1.1390 ca         1 4GU      -0.127000
     18 HN4         -0.2240    -0.0820    -2.0590 hn         1 4GU       0.466800
     19 HN8          4.1500     0.0000     1.6380 hn         1 4GU       0.345700
     20 H10         -0.5180    -0.0160     3.2380 h5         1 4GU       0.064100
     21 H11          2.2220     0.0000    -2.0730 h4         1 4GU       0.057800
     22 H14         -2.1520     0.9520     0.8150 ha         1 4GU       0.191000
     23 H15         -4.8140    -0.4030    -3.1170 ha         1 4GU       0.146000
     24 H16         -4.6040     1.1980     0.8380 ha         1 4GU       0.137000
     25 H17         -5.9320     0.5230    -1.1250 ha         1 4GU       0.136000
@<TRIPOS>BOND
     1     1     2 ar  
     2     1     4 1   
     3     1     6 ar  
     4     2     3 ar  
     5     2    11 1   
     6     3     7 ar  
     7     3     8 1   
     8     4     9 1   
     9     5     8 1   
    10     5    11 2   
    11     6    10 ar  
    12     7    10 ar  
    13     9    12 ar  
    14     9    14 ar  
    15    12    13 1   
    16    12    15 ar  
    17    14    16 ar  
    18    15    17 ar  
    19    16    17 ar  
    20     4    18 1   
    21     8    19 1   
    22    10    20 1   
    23    11    21 1   
    24    14    22 1   
    25    15    23 1   
    26    16    24 1   
    27    17    25 1   
@<TRIPOS>SUBSTRUCTURE
     1 4GU         1 TEMP              0 ****  ****    0 ROOT
