@<TRIPOS>MOLECULE
molecule
   45    47     1     0     0
SMALL
bcc


@<TRIPOS>ATOM
      1 CBD          0.0000     0.0000     0.0000 c          1 4GW       0.588500
      2 OAD          1.2150     0.0000     0.0000 o          1 4GW      -0.632100
      3 CBE         -0.7040     0.0000     1.2200 cc         1 4GW      -0.213700
      4 SBB          0.0340    -0.0010     2.8150 ss         1 4GW      -0.152800
      5 CAP         -2.0720     0.0070     1.3440 cc         1 4GW      -0.145000
      6 CAQ         -2.5260     0.0050     2.6290 cc         1 4GW      -0.140000
      7 CBF         -1.5460    -0.0000     3.5850 cd         1 4GW      -0.010900
      8 CBG         -1.7810    -0.0030     5.0420 cd         1 4GW      -0.198400
      9 CAR         -1.4010    -1.0680     5.8120 cc         1 4GW       0.033600
     10 CBH         -2.4240     1.1430     5.7050 c          1 4GW       0.711700
     11 OAE         -2.7760     2.1140     5.0630 o          1 4GW      -0.642500
     12 NAV         -2.6160     1.0920     7.0390 ns         1 4GW      -0.565500
     13 CBI         -2.2250     0.0130     7.7420 c          1 4GW       0.796500
     14 OAF         -2.4080    -0.0070     8.9430 o          1 4GW      -0.607500
     15 NBS         -1.6310    -1.0390     7.1550 n          1 4GW      -0.350000
     16 C1'         -1.2230    -2.1810     7.9770 c3         1 4GW       0.309500
     17 O4'         -2.3040    -2.6010     8.8360 os         1 4GW      -0.349600
     18 C2'         -0.1110    -1.7670     8.9730 c3         1 4GW       0.077100
     19 O2'          1.1800    -1.8670     8.3660 oh         1 4GW      -0.594800
     20 C3'         -0.2760    -2.8160    10.0990 c3         1 4GW       0.090100
     21 O3'          0.6630    -3.8800     9.9320 oh         1 4GW      -0.592800
     22 C4'         -1.7160    -3.3340     9.9240 c3         1 4GW       0.120100
     23 C5'         -2.5140    -3.0940    11.2060 c3         1 4GW       0.235400
     24 O5'         -3.8170    -3.6670    11.0700 os         1 4GW      -0.588200
     25 PBT         -4.9290    -3.6020    12.2330 p5         1 4GW       1.432800
     26 OAN         -4.3700    -4.1660    13.4810 o          1 4GW      -0.852500
     27 OAG         -5.3590    -2.0700    12.4790 o          1 4GW      -0.852500
     28 OBA         -6.2200    -4.4570    11.7880 os         1 4GW      -0.714800
     29 PBU         -7.5000    -5.0370    12.5730 p5         1 4GW       1.315900
     30 OAO         -8.5790    -3.8610    12.7820 o          1 4GW      -0.794167
     31 OAH         -8.1630    -6.2260    11.7120 o          1 4GW      -0.794167
     32 O1          -7.0770    -5.5590    13.8920 o          1 4GW      -0.794167
     33 H1          -0.5420     0.0000    -0.9380 h4         1 4GW      -0.037800
     34 H4          -2.7360     0.0110     0.4890 ha         1 4GW       0.116000
     35 H5          -3.5810     0.0080     2.8750 ha         1 4GW       0.138000
     36 H7          -0.9200    -1.9270     5.3590 h4         1 4GW       0.169000
     37 H8          -3.0510     1.8600     7.5090 hn         1 4GW       0.354500
     38 H9          -0.8900    -3.0050     7.3580 h2         1 4GW       0.081700
     39 H10         -0.2900    -0.7680     9.3520 h1         1 4GW       0.076700
     40 H11          1.7110    -1.1350     8.6340 ho         1 4GW       0.389000
     41 H12         -0.1590    -2.3490    11.0690 h1         1 4GW       0.054700
     42 H13          1.1800    -3.9690    10.7160 ho         1 4GW       0.391000
     43 H14         -1.6990    -4.3910     9.6860 h1         1 4GW       0.074700
     44 H15         -2.6050    -2.0290    11.3810 h1         1 4GW       0.033700
     45 H16         -2.0030    -3.5560    12.0420 h1         1 4GW       0.033700
@<TRIPOS>BOND
     1    32    29 1
     2    30    29 1
     3    29    28 1
     4    29    31 1
     5    28    25 1
     6    23    24 1
     7    23    22 1
     8    24    25 1
     9    17    22 1
    10    17    16 1
    11    25    26 1
    12    25    27 1
    13    22    20 1
    14     5     6 1
    15     5     3 2
    16     6     7 2
    17     3     1 1
    18     3     4 1
    19     1     2 2
    20    16    15 1
    21    16    18 1
    22     9    15 1
    23     9     8 2
    24    20    21 1
    25    20    18 1
    26     7     8 1
    27     7     4 1
    28    19    18 1
    29    15    13 1
    30     8    10 1
    31    13    14 2
    32    13    12 1
    33    10    12 1
    34    10    11 2
    35     1    33 1
    36     5    34 1
    37     6    35 1
    38     9    36 1
    39    12    37 1
    40    16    38 1
    41    18    39 1
    42    19    40 1
    43    20    41 1
    44    21    42 1
    45    22    43 1
    46    23    44 1
    47    23    45 1
@<TRIPOS>SUBSTRUCTURE
     1 4GW         1 TEMP              0 ****  ****    0 ROOT
