@<TRIPOS>MOLECULE
4GZ
   60    62     1     0     0
SMALL
bcc


@<TRIPOS>ATOM
      1 C4           0.0000     0.0000     0.0000 ca         1 4GZ      -0.105000
      2 C5           1.3800     0.0000     0.0000 ca         1 4GZ      -0.099000
      3 C18          8.9250    -0.2760    -7.0950 ca         1 4GZ       0.080000
      4 C3          -0.6950     0.0010     1.1970 ca         1 4GZ      -0.074000
      5 C17          8.6780    -0.2220    -5.7500 ca         1 4GZ      -0.261300
      6 C7           1.3670     0.0020     2.4140 ca         1 4GZ      -0.032000
      7 C20          7.6240    -2.3050    -7.1720 ca         1 4GZ       0.482200
      8 C6           2.0740     0.0000     1.2110 ca         1 4GZ      -0.156600
      9 C19          8.3860    -1.3400    -7.8330 ca         1 4GZ      -0.428900
     10 C2          -0.0120    -0.0030     2.4000 ca         1 4GZ      -0.094300
     11 C16          7.9030    -1.2170    -5.1560 ca         1 4GZ       0.564200
     12 C8           3.5530    -0.0000     1.2180 c          1 4GZ       0.601700
     13 C27         10.2830    -0.3180    -0.0270 c3         1 4GZ      -0.025400
     14 C26          9.7300    -1.5210    -0.7940 c3         1 4GZ      -0.028900
     15 C28          9.8110     0.9740    -0.6980 c3         1 4GZ      -0.028900
     16 C25          8.2010    -1.4720    -0.7870 c3         1 4GZ      -0.028900
     17 C29          8.2830     1.0240    -0.6920 c3         1 4GZ      -0.028900
     18 C13          7.7310    -0.1790    -1.4590 c3         1 4GZ      -0.066000
     19 C1          -0.7770    -0.0010     3.6980 c3         1 4GZ       0.063200
     20 C12          6.2140    -0.0050    -1.3780 c3         1 4GZ      -0.043400
     21 C14          8.1730    -0.1180    -2.9210 c3         1 4GZ       0.152800
     22 C11          5.6970    -0.0030     0.0620 c3         1 4GZ       0.040000
     23 N21          7.4050    -2.2130    -5.8770 nb         1 4GZ      -0.598000
     24 N23          8.0970    -2.4650    -9.9860 nz         1 4GZ       0.201600
     25 N15          7.4980    -1.1730    -3.6810 nu         1 4GZ      -0.515900
     26 N10          4.2330    -0.0020     0.0550 ns         1 4GZ      -0.211900
     27 O9           4.1550     0.0000     2.2740 o          1 4GZ      -0.642100
     28 O24          9.2840    -0.5920    -9.8530 o          1 4GZ      -0.447100
     29 H1          -0.5400     0.0020    -0.9390 ha         1 4GZ       0.104000
     30 H2           1.9230    -0.0010    -0.9370 ha         1 4GZ       0.093000
     31 H3           9.5220     0.4870    -7.5800 ha         1 4GZ       0.136000
     32 H4          -1.7780    -0.0010     1.1910 ha         1 4GZ       0.109000
     33 H5           9.0800     0.5870    -5.1520 ha         1 4GZ       0.149000
     34 H6           1.9000     0.0000     3.3570 ha         1 4GZ       0.132000
     35 H7           7.2020    -3.1320    -7.7300 h4         1 4GZ      -0.049900
     36 H8           9.9220    -0.3460     0.9940 hc         1 4GZ       0.023700
     37 H9          11.3650    -0.3530    -0.0350 hc         1 4GZ       0.023700
     38 H10         10.0870    -1.4910    -1.8160 hc         1 4GZ       0.016200
     39 H11         10.0630    -2.4350    -0.3160 hc         1 4GZ       0.016200
     40 H12         10.1690     0.9990    -1.7200 hc         1 4GZ       0.016200
     41 H13         10.2010     1.8240    -0.1520 hc         1 4GZ       0.016200
     42 H14          7.8450    -1.4970     0.2350 hc         1 4GZ       0.030200
     43 H15          7.8110    -2.3230    -1.3320 hc         1 4GZ       0.030200
     44 H16          7.9510     1.9380    -1.1700 hc         1 4GZ       0.030200
     45 H17          7.9250     0.9940     0.3300 hc         1 4GZ       0.030200
     46 H18         -1.8130    -0.2530     3.5070 hc         1 4GZ       0.011700
     47 H19         -0.3470    -0.7310     4.3730 hc         1 4GZ       0.011700
     48 H20         -0.7230     0.9830     4.1480 hc         1 4GZ       0.011700
     49 H21          5.9270     0.9010    -1.8980 hc         1 4GZ       0.016700
     50 H22          5.7280    -0.8560    -1.8400 hc         1 4GZ       0.016700
     51 H23          9.2530    -0.1780    -2.9750 h1         1 4GZ       0.033200
     52 H24          7.8410     0.8150    -3.3610 h1         1 4GZ       0.033200
     53 H25          5.9590    -0.9380     0.5410 h1         1 4GZ       0.037200
     54 H26          6.1460     0.8200     0.6060 h1         1 4GZ       0.037200
     55 H27          8.3180    -2.3550   -10.9560 hn         1 4GZ       0.245133
     56 H28          8.4610    -3.3370    -9.6570 hn         1 4GZ       0.245133
     57 H29          6.9230    -1.8980    -3.2980 hn         1 4GZ       0.333800
     58 H30          3.7370     0.0000    -0.8140 hn         1 4GZ       0.178500
     59 H233         7.1030    -2.4630    -9.8690 hn         1 4GZ       0.245133
     60 C22          8.6200    -1.4380    -9.2860 c          1 4GZ       0.368700
@<TRIPOS>BOND
     1     1     2 ar  
     2     1     4 ar  
     3     1    29 1   
     4     2     8 ar  
     5     2    30 1   
     6     3     5 ar  
     7     3     9 ar  
     8     3    31 1   
     9     4    10 ar  
    10     4    32 1   
    11     5    11 ar  
    12     5    33 1   
    13     6     8 ar  
    14     6    10 ar  
    15     6    34 1   
    16     7     9 ar  
    17     7    23 ar  
    18     7    35 1   
    19     8    12 1   
    20     9    60 1   
    21    10    19 1   
    22    11    23 ar  
    23    11    25 1   
    24    12    26 1   
    25    12    27 2   
    26    13    14 1   
    27    13    15 1   
    28    13    36 1   
    29    13    37 1   
    30    14    16 1   
    31    14    38 1   
    32    14    39 1   
    33    15    17 1   
    34    15    40 1   
    35    15    41 1   
    36    16    18 1   
    37    16    42 1   
    38    16    43 1   
    39    17    18 1   
    40    17    44 1   
    41    17    45 1   
    42    18    20 1   
    43    18    21 1   
    44    19    46 1   
    45    19    47 1   
    46    19    48 1   
    47    20    22 1   
    48    20    49 1   
    49    20    50 1   
    50    21    25 1   
    51    21    51 1   
    52    21    52 1   
    53    22    26 1   
    54    22    53 1   
    55    22    54 1   
    56    24    55 1   
    57    24    56 1   
    58    24    59 1   
    59    24    60 1   
    60    25    57 1   
    61    26    58 1   
    62    28    60 2   
@<TRIPOS>SUBSTRUCTURE
     1 4GZ         1 TEMP              0 ****  ****    0 ROOT
