@<TRIPOS>MOLECULE
molecule
   60    62     1     0     0
SMALL
bcc


@<TRIPOS>ATOM
      1 C4           0.0000     0.0000     0.0000 ca         1 4GZ      -0.134000
      2 C5           1.3800     0.0000     0.0000 ca         1 4GZ      -0.117000
      3 C18          8.9250    -0.2760    -7.0950 ca         1 4GZ       0.032000
      4 C3          -0.6950     0.0010     1.1970 ca         1 4GZ      -0.102000
      5 C17          8.6780    -0.2220    -5.7500 ca         1 4GZ      -0.281300
      6 C7           1.3670     0.0020     2.4140 ca         1 4GZ      -0.065000
      7 C20          7.6240    -2.3050    -7.1720 ca         1 4GZ       0.500200
      8 C6           2.0740     0.0000     1.2110 ca         1 4GZ      -0.146600
      9 C19          8.3860    -1.3400    -7.8330 ca         1 4GZ      -0.405900
     10 C2          -0.0120    -0.0030     2.4000 ca         1 4GZ      -0.087300
     11 C16          7.9030    -1.2170    -5.1560 ca         1 4GZ       0.733200
     12 C8           3.5530    -0.0000     1.2180 c          1 4GZ       0.676700
     13 C27         10.2830    -0.3180    -0.0270 c3         1 4GZ      -0.081400
     14 C26          9.7300    -1.5210    -0.7940 c3         1 4GZ      -0.083900
     15 C28          9.8110     0.9740    -0.6980 c3         1 4GZ      -0.083900
     16 C25          8.2010    -1.4720    -0.7870 c3         1 4GZ      -0.074400
     17 C29          8.2830     1.0240    -0.6920 c3         1 4GZ      -0.074400
     18 C13          7.7310    -0.1790    -1.4590 c3         1 4GZ      -0.069000
     19 C1          -0.7770    -0.0010     3.6980 c3         1 4GZ      -0.049800
     20 C12          6.2140    -0.0050    -1.3780 c3         1 4GZ      -0.097400
     21 C14          8.1730    -0.1180    -2.9210 c3         1 4GZ       0.235800
     22 C11          5.6970    -0.0030     0.0620 c3         1 4GZ       0.111000
     23 N21          7.4050    -2.2130    -5.8770 nb         1 4GZ      -0.720000
     24 N23          8.0970    -2.4650    -9.9860 nz         1 4GZ      -0.678400
     25 N15          7.4980    -1.1730    -3.6810 nu         1 4GZ      -0.898900
     26 N10          4.2330    -0.0020     0.0550 ns         1 4GZ      -0.590900
     27 O9           4.1550     0.0000     2.2740 o          1 4GZ      -0.603100
     28 O24          9.2840    -0.5920    -9.8530 o          1 4GZ      -0.432100
     29 H1          -0.5400     0.0020    -0.9390 ha         1 4GZ       0.132000
     30 H2           1.9230    -0.0010    -0.9370 ha         1 4GZ       0.116000
     31 H3           9.5220     0.4870    -7.5800 ha         1 4GZ       0.177000
     32 H4          -1.7780    -0.0010     1.1910 ha         1 4GZ       0.137000
     33 H5           9.0800     0.5870    -5.1520 ha         1 4GZ       0.176000
     34 H6           1.9000     0.0000     3.3570 ha         1 4GZ       0.160000
     35 H7           7.2020    -3.1320    -7.7300 h4         1 4GZ      -0.000900
     36 H8           9.9220    -0.3460     0.9940 hc         1 4GZ       0.052700
     37 H9          11.3650    -0.3530    -0.0350 hc         1 4GZ       0.052700
     38 H10         10.0870    -1.4910    -1.8160 hc         1 4GZ       0.042950
     39 H11         10.0630    -2.4350    -0.3160 hc         1 4GZ       0.042950
     40 H12         10.1690     0.9990    -1.7200 hc         1 4GZ       0.042950
     41 H13         10.2010     1.8240    -0.1520 hc         1 4GZ       0.042950
     42 H14          7.8450    -1.4970     0.2350 hc         1 4GZ       0.054950
     43 H15          7.8110    -2.3230    -1.3320 hc         1 4GZ       0.054950
     44 H16          7.9510     1.9380    -1.1700 hc         1 4GZ       0.054950
     45 H17          7.9250     0.9940     0.3300 hc         1 4GZ       0.054950
     46 H18         -1.8130    -0.2530     3.5070 hc         1 4GZ       0.049033
     47 H19         -0.3470    -0.7310     4.3730 hc         1 4GZ       0.049033
     48 H20         -0.7230     0.9830     4.1480 hc         1 4GZ       0.049033
     49 H21          5.9270     0.9010    -1.8980 hc         1 4GZ       0.043700
     50 H22          5.7280    -0.8560    -1.8400 hc         1 4GZ       0.043700
     51 H23          9.2530    -0.1780    -2.9750 h1         1 4GZ       0.051700
     52 H24          7.8410     0.8150    -3.3610 h1         1 4GZ       0.051700
     53 H25          5.9590    -0.9380     0.5410 h1         1 4GZ       0.059700
     54 H26          6.1460     0.8200     0.6060 h1         1 4GZ       0.059700
     55 H27          8.3180    -2.3550   -10.9560 hn         1 4GZ       0.475800
     56 H28          8.4610    -3.3370    -9.6570 hn         1 4GZ       0.475800
     57 H29          6.9230    -1.8980    -3.2980 hn         1 4GZ       0.479800
     58 H30          3.7370     0.0000    -0.8140 hn         1 4GZ       0.312500
     59 H233         7.1030    -2.4630    -9.8690 hn         1 4GZ       0.475800
     60 C22          8.6200    -1.4380    -9.2860 c          1 4GZ       0.514700
@<TRIPOS>BOND
     1    13    14 1   
     2    13    15 1   
     3    14    16 1   
     4    16    18 1   
     5    15    17 1   
     6    22    26 1   
     7    22    20 1   
     8    27    12 2   
     9    26    12 1   
    10     2     1 ar  
    11     2     8 ar  
    12    12     8 1   
    13    17    18 1   
    14     1     4 ar  
    15     8     6 ar  
    16    18    20 1   
    17    18    21 1   
    18     4    10 ar  
    19     6    10 ar  
    20    10    19 1   
    21    21    25 1   
    22    25    11 1   
    23     5    11 ar  
    24     5     3 ar  
    25    11    23 ar  
    26     3     9 ar  
    27    23     7 ar  
    28     9     7 ar  
    29     9    60 1   
    30    28    60 2   
    31    60    24 1   
    32     1    29 1   
    33     2    30 1   
    34     3    31 1   
    35     4    32 1   
    36     5    33 1   
    37     6    34 1   
    38     7    35 1   
    39    13    36 1   
    40    13    37 1   
    41    14    38 1   
    42    14    39 1   
    43    15    40 1   
    44    15    41 1   
    45    16    42 1   
    46    16    43 1   
    47    17    44 1   
    48    17    45 1   
    49    19    46 1   
    50    19    47 1   
    51    19    48 1   
    52    20    49 1   
    53    20    50 1   
    54    21    51 1   
    55    21    52 1   
    56    22    53 1   
    57    22    54 1   
    58    24    55 1   
    59    24    56 1   
    60    25    57 1   
    61    26    58 1   
    62    59    24 1   
@<TRIPOS>SUBSTRUCTURE
     1 4GZ         1 TEMP              0 ****  ****    0 ROOT
