@<TRIPOS>MOLECULE
molecule
   43    44     1     0     0
SMALL
bcc


@<TRIPOS>ATOM
      1 C12          0.0000     0.0000     0.0000 ca         1 4H1       0.048000
      2 C11          1.3680     0.0000     0.0000 ca         1 4H1      -0.321300
      3 C14          0.0790    -0.0030     2.4120 ca         1 4H1       0.518200
      4 C13         -0.6700     0.0020     1.2330 ca         1 4H1      -0.412900
      5 C10          2.0520     0.0000     1.2140 ca         1 4H1       0.758200
      6 C16         -2.1440     0.0090     1.2840 c          1 4H1       0.515700
      7 C5           7.5690     1.3030     1.2120 c3         1 4H1      -0.073400
      8 C4           8.3360     1.1750    -0.1050 c3         1 4H1      -0.093400
      9 C6           6.0660     1.3040     0.9280 c3         1 4H1      -0.084400
     10 C19          6.4440    -0.1320    -1.0820 c3         1 4H1      -0.063400
     11 C3           7.9470    -0.1330    -0.7970 c3         1 4H1      -0.102700
     12 C7           5.6770    -0.0040     0.2360 c3         1 4H1      -0.086700
     13 C2           8.7150    -0.2610    -2.1150 c3         1 4H1       0.096800
     14 C8           4.1730    -0.0030    -0.0470 c3         1 4H1       0.230800
     15 N15          1.3950     0.0020     2.3660 nb         1 4H1      -0.740000
     16 N17         -2.7780     0.0100     2.4740 nz         1 4H1      -0.678400
     17 N1          10.1520    -0.3820    -1.8340 nz         1 4H1      -0.808600
     18 N9           3.4370    -0.0010     1.2190 nu         1 4H1      -0.876900
     19 O18         -2.7880     0.0140     0.2520 o          1 4H1      -0.425100
     20 H1          -0.5540     0.0020    -0.9310 ha         1 4H1       0.178000
     21 H2           1.9150    -0.0010    -0.9350 ha         1 4H1       0.165000
     22 H3          -0.4260    -0.0020     3.3700 h4         1 4H1       0.006100
     23 H4           7.8440     2.2300     1.7000 hc         1 4H1       0.066700
     24 H5           7.8130     0.4650     1.8540 hc         1 4H1       0.066700
     25 H6           8.0880     2.0100    -0.7490 hc         1 4H1       0.046700
     26 H7           9.4010     1.1710     0.0970 hc         1 4H1       0.046700
     27 H8           5.8220     2.1390     0.2820 hc         1 4H1       0.062700
     28 H9           5.5230     1.3920     1.8610 hc         1 4H1       0.062700
     29 H10          6.1690    -1.0590    -1.5690 hc         1 4H1       0.061700
     30 H11          6.2000     0.7060    -1.7230 hc         1 4H1       0.061700
     31 H12          8.1900    -0.9670    -0.1500 hc         1 4H1       0.073700
     32 H13          5.9270    -0.8380     0.8790 hc         1 4H1       0.070700
     33 H14          8.3750    -1.1410    -2.6460 hx         1 4H1       0.113200
     34 H15          8.5380     0.6190    -2.7220 hx         1 4H1       0.113200
     35 H16          3.9130     0.8810    -0.6170 h1         1 4H1       0.058200
     36 H17          3.9120    -0.8880    -0.6150 h1         1 4H1       0.058200
     37 H18         -3.7670     0.0150     2.3250 hn         1 4H1       0.478467
     38 H19         -2.5220    -0.8090     2.9890 hn         1 4H1       0.478467
     39 H20         10.5390     0.5270    -1.6780 hn         1 4H1       0.460800
     40 H21         10.6090    -0.8090    -2.6150 hn         1 4H1       0.460800
     41 H23          3.9340    -0.0440     2.0860 hn         1 4H1       0.469800
     42 H173        -2.5130     0.8250     2.9920 hn         1 4H1       0.478467
     43 H131        10.2860    -0.9350    -1.0110 hn         1 4H1       0.460800
@<TRIPOS>BOND
     1     7     8 1   
     2     7     9 1   
     3     8    11 1   
     4     9    12 1   
     5    17    13 1   
     6    11    13 1   
     7    11    10 1   
     8    12    10 1   
     9    12    14 1   
    10    14    18 1   
    11    18     5 1   
    12     2     5 ar  
    13     2     1 ar  
    14     5    15 ar  
    15     1     4 ar  
    16    15     3 ar  
    17     4     3 ar  
    18     4     6 1   
    19    19     6 2   
    20     6    16 1   
    21     1    20 1   
    22     2    21 1   
    23     3    22 1   
    24     7    23 1   
    25     7    24 1   
    26     8    25 1   
    27     8    26 1   
    28     9    27 1   
    29     9    28 1   
    30    10    29 1   
    31    10    30 1   
    32    11    31 1   
    33    12    32 1   
    34    13    33 1   
    35    13    34 1   
    36    14    35 1   
    37    14    36 1   
    38    16    37 1   
    39    16    38 1   
    40    17    39 1   
    41    17    40 1   
    42    18    41 1   
    43    42    16 1   
    44    43    17 1   
@<TRIPOS>SUBSTRUCTURE
     1 4H1         1 TEMP              0 ****  ****    0 ROOT
