@<TRIPOS>MOLECULE
4H1
   43    44     1     0     0
SMALL
bcc


@<TRIPOS>ATOM
      1 C12          0.0000     0.0000     0.0000 ca         1 4H1       0.104000
      2 C11          1.3680     0.0000     0.0000 ca         1 4H1      -0.314300
      3 C14          0.0790    -0.0030     2.4120 ca         1 4H1       0.508200
      4 C13         -0.6700     0.0020     1.2330 ca         1 4H1      -0.442900
      5 C10          2.0520     0.0000     1.2140 ca         1 4H1       0.567200
      6 C16         -2.1440     0.0090     1.2840 c          1 4H1       0.369700
      7 C5           7.5690     1.3030     1.2120 c3         1 4H1      -0.010400
      8 C4           8.3360     1.1750    -0.1050 c3         1 4H1      -0.035400
      9 C6           6.0660     1.3040     0.9280 c3         1 4H1      -0.032400
     10 C19          6.4440    -0.1320    -1.0820 c3         1 4H1      -0.004400
     11 C3           7.9470    -0.1330    -0.7970 c3         1 4H1      -0.067700
     12 C7           5.6770    -0.0040     0.2360 c3         1 4H1      -0.060700
     13 C2           8.7150    -0.2610    -2.1150 c3         1 4H1      -0.048200
     14 C8           4.1730    -0.0030    -0.0470 c3         1 4H1       0.150800
     15 N15          1.3950     0.0020     2.3660 nb         1 4H1      -0.626000
     16 N17         -2.7780     0.0100     2.4740 nz         1 4H1       0.203600
     17 N1          10.1520    -0.3820    -1.8340 nz         1 4H1       0.082400
     18 N9           3.4370    -0.0010     1.2190 nu         1 4H1      -0.444900
     19 O18         -2.7880     0.0140     0.2520 o          1 4H1      -0.441100
     20 H1          -0.5540     0.0020    -0.9310 ha         1 4H1       0.137000
     21 H2           1.9150    -0.0010    -0.9350 ha         1 4H1       0.142000
     22 H3          -0.4260    -0.0020     3.3700 h4         1 4H1      -0.044900
     23 H4           7.8440     2.2300     1.7000 hc         1 4H1       0.034700
     24 H5           7.8130     0.4650     1.8540 hc         1 4H1       0.034700
     25 H6           8.0880     2.0100    -0.7490 hc         1 4H1       0.017700
     26 H7           9.4010     1.1710     0.0970 hc         1 4H1       0.017700
     27 H8           5.8220     2.1390     0.2820 hc         1 4H1       0.032700
     28 H9           5.5230     1.3920     1.8610 hc         1 4H1       0.032700
     29 H10          6.1690    -1.0590    -1.5690 hc         1 4H1       0.032700
     30 H11          6.2000     0.7060    -1.7230 hc         1 4H1       0.032700
     31 H12          8.1900    -0.9670    -0.1500 hc         1 4H1       0.048700
     32 H13          5.9270    -0.8380     0.8790 hc         1 4H1       0.043700
     33 H14          8.3750    -1.1410    -2.6460 hx         1 4H1       0.087700
     34 H15          8.5380     0.6190    -2.7220 hx         1 4H1       0.087700
     35 H16          3.9130     0.8810    -0.6170 h1         1 4H1       0.033200
     36 H17          3.9120    -0.8880    -0.6150 h1         1 4H1       0.033200
     37 H18         -3.7670     0.0150     2.3250 hn         1 4H1       0.246800
     38 H19         -2.5220    -0.8090     2.9890 hn         1 4H1       0.246800
     39 H20         10.5390     0.5270    -1.6780 hn         1 4H1       0.228133
     40 H21         10.6090    -0.8090    -2.6150 hn         1 4H1       0.228133
     41 H23          3.9340    -0.0440     2.0860 hn         1 4H1       0.315800
     42 H173        -2.5130     0.8250     2.9920 hn         1 4H1       0.246800
     43 H131        10.2860    -0.9350    -1.0110 hn         1 4H1       0.228133
@<TRIPOS>BOND
     1     1     2 ar  
     2     1     4 ar  
     3     1    20 1   
     4     2     5 ar  
     5     2    21 1   
     6     3     4 ar  
     7     3    15 ar  
     8     3    22 1   
     9     4     6 1   
    10     5    15 ar  
    11     5    18 1   
    12     6    16 1   
    13     6    19 2   
    14     7     8 1   
    15     7     9 1   
    16     7    23 1   
    17     7    24 1   
    18     8    11 1   
    19     8    25 1   
    20     8    26 1   
    21     9    12 1   
    22     9    27 1   
    23     9    28 1   
    24    10    11 1   
    25    10    12 1   
    26    10    29 1   
    27    10    30 1   
    28    11    13 1   
    29    11    31 1   
    30    12    14 1   
    31    12    32 1   
    32    13    17 1   
    33    13    33 1   
    34    13    34 1   
    35    14    18 1   
    36    14    35 1   
    37    14    36 1   
    38    16    37 1   
    39    16    38 1   
    40    16    42 1   
    41    17    39 1   
    42    17    40 1   
    43    17    43 1   
    44    18    41 1   
@<TRIPOS>SUBSTRUCTURE
     1 4H1         1 TEMP              0 ****  ****    0 ROOT
