@<TRIPOS>MOLECULE
molecule
   15    15     1     0     0
SMALL
bcc


@<TRIPOS>ATOM
      1 C6           0.0000     0.0000     0.0000 c3         1 4H2      -0.059900
      2 C3           1.5070     0.0000     0.0000 cc         1 4H2      -0.009200
      3 C2           2.1960     0.0000     1.1770 cd         1 4H2      -0.186200
      4 C1           3.6000    -0.0000     1.1520 cs         1 4H2       0.426600
      5 S1           4.4830    -0.0020     2.6190 s          1 4H2      -0.649400
      6 N1           4.2540    -0.0000    -0.0260 ns         1 4H2      -0.310100
      7 C5           3.5690     0.0010    -1.2000 cc         1 4H2      -0.023400
      8 C4           2.2160    -0.0050    -1.2100 cd         1 4H2      -0.207000
      9 H1          -0.3610    -0.9950     0.2300 hc         1 4H2       0.055033
     10 H2          -0.3610     0.6970     0.7470 hc         1 4H2       0.055033
     11 H3          -0.3610     0.2990    -0.9770 hc         1 4H2       0.055033
     12 H4           1.6710    -0.1510     2.1120 ha         1 4H2       0.179000
     13 H6           4.1130    -0.0010    -2.1370 h4         1 4H2       0.163000
     14 H7           1.6810    -0.0040    -2.1520 ha         1 4H2       0.153000
     15 H5           5.2540     0.0020    -0.0360 hn         1 4H2       0.358500
@<TRIPOS>BOND
     1     7     8 2   
     2     7     6 1   
     3     8     2 1   
     4     6     4 1   
     5     2     1 1   
     6     2     3 2   
     7     4     3 1   
     8     4     5 2   
     9     1     9 1   
    10     1    10 1   
    11     1    11 1   
    12     3    12 1   
    13     7    13 1   
    14     8    14 1   
    15     6    15 1   
@<TRIPOS>SUBSTRUCTURE
     1 4H2         1 TEMP              0 ****  ****    0 ROOT
