@<TRIPOS>MOLECULE
molecule
   36    37     1     0     0
SMALL
bcc


@<TRIPOS>ATOM
      1 C5           0.0000     0.0000     0.0000 ca         1 4H3       0.041000
      2 C6           1.3690     0.0000     0.0000 ca         1 4H3      -0.318300
      3 C18          0.0790    -0.0050     2.4110 ca         1 4H3       0.515200
      4 C4          -0.6700     0.0010     1.2330 ca         1 4H3      -0.424900
      5 C7           2.0530     0.0000     1.2150 ca         1 4H3       0.758200
      6 C2          -2.1440     0.0070     1.2840 c          1 4H3       0.512700
      7 C16          5.5740    -0.6150     0.1560 c3         1 4H3      -0.090400
      8 C10          4.3920     1.4430    -0.5320 c3         1 4H3      -0.143400
      9 C13          6.4950     0.2280    -0.7620 c3         1 4H3      -0.067700
     10 C9           4.1730    -0.0010    -0.0480 c3         1 4H3       0.221500
     11 C11          5.9170     1.6570    -0.6050 c3         1 4H3       0.157100
     12 C14          7.9440     0.1690    -0.2770 c3         1 4H3       0.152400
     13 N17          1.3950     0.0010     2.3670 nb         1 4H3      -0.746000
     14 N1          -2.7770     0.0080     2.4730 nz         1 4H3      -0.677400
     15 N8           3.4370     0.0000     1.2180 nu         1 4H3      -0.852900
     16 O3          -2.7880     0.0120     0.2510 o          1 4H3      -0.440100
     17 O12          6.2560     2.4590    -1.7390 oh         1 4H3      -0.575800
     18 O15          8.7850     0.8560    -1.2050 oh         1 4H3      -0.591800
     19 H1          -0.5540     0.0020    -0.9310 ha         1 4H3       0.174000
     20 H2           1.9160    -0.0010    -0.9350 ha         1 4H3       0.175000
     21 H3          -0.4260    -0.0040     3.3690 h4         1 4H3      -0.002900
     22 H4           5.8820    -0.5190     1.1900 hc         1 4H3       0.061700
     23 H5           5.5800    -1.6530    -0.1540 hc         1 4H3       0.061700
     24 H6           3.9540     2.1400     0.1720 hc         1 4H3       0.064700
     25 H7           3.9530     1.5740    -1.5140 hc         1 4H3       0.064700
     26 H8           6.4140    -0.1040    -1.7900 hc         1 4H3       0.094700
     27 H9           3.6300    -0.5640    -0.7980 h1         1 4H3       0.074700
     28 H10          6.2780     2.1110     0.3090 h1         1 4H3       0.044700
     29 H11          8.2580    -0.8650    -0.2030 h1         1 4H3       0.024200
     30 H12          8.0200     0.6400     0.6950 h1         1 4H3       0.024200
     31 H13         -2.5210    -0.8110     2.9880 hn         1 4H3       0.474800
     32 H14         -3.7670     0.0130     2.3240 hn         1 4H3       0.474800
     33 H15          3.9350     0.0020     2.0870 hn         1 4H3       0.468800
     34 H16          6.1920     3.3710    -1.5090 ho         1 4H3       0.407000
     35 H17          9.6810     0.5960    -1.0700 ho         1 4H3       0.409000
     36 H131        -2.5110     0.8220     2.9920 hn         1 4H3       0.474800
@<TRIPOS>BOND
     1    17    11 1
     2    12     9 1
     3    12    18 1
     4    11     9 1
     5    11     8 1
     6     9     7 1
     7     8    10 1
     8     7    10 1
     9    10    15 1
    10    15     5 1
    11     2     5 ar
    12     2     1 ar
    13     5    13 ar
    14     1     4 ar
    15    13     3 ar
    16     4     3 ar
    17     4     6 1
    18    16     6 2
    19     6    14 1
    20     1    19 1
    21     2    20 1
    22     3    21 1
    23     7    22 1
    24     7    23 1
    25     8    24 1
    26     8    25 1
    27     9    26 1
    28    10    27 1
    29    11    28 1
    30    12    29 1
    31    12    30 1
    32    14    31 1
    33    14    32 1
    34    15    33 1
    35    17    34 1
    36    18    35 1
    37    36    14 1
@<TRIPOS>SUBSTRUCTURE
     1 4H3         1 TEMP              0 ****  ****    0 ROOT
