@<TRIPOS>MOLECULE
molecule
   29    31     1     0     0
SMALL
bcc


@<TRIPOS>ATOM
      1 C4           0.0000     0.0000     0.0000 cp         1 4H5      -0.124000
      2 C5           1.4710     0.0000     0.0000 cp         1 4H5      -0.011000
      3 C6           2.4500     0.0000     0.9920 ca         1 4H5      -0.204300
      4 N1           0.7380     0.0020    -2.1380 na         1 4H5      -0.064300
      5 C7           3.7770     0.0010     0.6160 ca         1 4H5       0.377200
      6 C8           3.2330    -0.0020    -1.6340 ca         1 4H5       0.505300
      7 N2           0.7190    -2.4590    -4.4780 n1         1 4H5      -0.340800
      8 C9           1.8720     0.0020    -1.3480 ca         1 4H5      -0.104500
      9 C10          0.7390    -0.0030    -3.6030 c3         1 4H5       0.111400
     10 C11          0.7350    -1.3920    -4.0890 c1         1 4H5       0.181700
     11 C12         -0.3970     0.0070    -1.3470 ca         1 4H5       0.070800
     12 C13         -1.7530     0.0100    -1.6600 ca         1 4H5      -0.211000
     13 Cl           3.7650    -0.0080    -3.2870 cl         1 4H5      -0.167000
     14 C1          -2.6950     0.0150    -0.6480 ca         1 4H5       0.169100
     15 O           -4.0180     0.0180    -0.9580 os         1 4H5      -0.314900
     16 C           -4.9400     0.0230     0.1330 c3         1 4H5       0.122700
     17 C2          -2.2970     0.0180     0.6860 ca         1 4H5      -0.251000
     18 C3          -0.9600    -0.0020     1.0110 ca         1 4H5      -0.027000
     19 N            4.1220     0.0020    -0.6600 nb         1 4H5      -0.669000
     20 H1           2.5610     0.0460     2.0690 ha         1 4H5       0.156000
     21 H2           4.6170     0.0650     1.2970 h4         1 4H5       0.034100
     22 H3          -0.2280     0.1010    -4.0820 h1         1 4H5       0.099700
     23 H4           1.3910     0.7730    -3.9870 h1         1 4H5       0.099700
     24 H5          -2.3780     0.0770    -2.5420 ha         1 4H5       0.164000
     25 H6          -4.8800     0.9110     0.7510 h1         1 4H5       0.039033
     26 H7          -6.0040    -0.1570     0.0430 h1         1 4H5       0.039033
     27 H8          -4.5990    -0.7390     0.8240 h1         1 4H5       0.039033
     28 H9          -3.0230    -0.0070     1.4890 ha         1 4H5       0.141000
     29 H10         -0.7390     0.3100     2.0240 ha         1 4H5       0.139000
@<TRIPOS>BOND
     1     7    10 3   
     2    10     9 1   
     3     9     4 1   
     4    13     6 1   
     5     4     8 1   
     6     4    11 1   
     7     6     8 ar  
     8     6    19 ar  
     9    16    15 1   
    10    12    11 ar  
    11    12    14 ar  
    12     8     2 ar  
    13    11     1 ar  
    14    19     5 ar  
    15    15    14 1   
    16    14    17 ar  
    17     2     1 1   
    18     2     3 ar  
    19     1    18 ar  
    20     5     3 ar  
    21    17    18 ar  
    22     3    20 1   
    23     5    21 1   
    24     9    22 1   
    25     9    23 1   
    26    12    24 1   
    27    16    25 1   
    28    16    26 1   
    29    16    27 1   
    30    17    28 1   
    31    18    29 1   
@<TRIPOS>SUBSTRUCTURE
     1 4H5         1 TEMP              0 ****  ****    0 ROOT
