@<TRIPOS>MOLECULE
4H5
   29    31     1     0     0
SMALL
bcc


@<TRIPOS>ATOM
      1 C4           0.0000     0.0000     0.0000 cp         1 4H5      -0.123000
      2 C5           1.4710     0.0000     0.0000 cp         1 4H5      -0.005000
      3 C6           2.4500     0.0000     0.9920 ca         1 4H5      -0.162300
      4 N1           0.7380     0.0020    -2.1380 na         1 4H5       0.385700
      5 C7           3.7770     0.0010     0.6160 ca         1 4H5       0.345200
      6 C8           3.2330    -0.0020    -1.6340 ca         1 4H5       0.398300
      7 N2           0.7190    -2.4590    -4.4780 n1         1 4H5      -0.347800
      8 C9           1.8720     0.0020    -1.3480 ca         1 4H5      -0.274500
      9 C10          0.7390    -0.0030    -3.6030 c3         1 4H5       0.081400
     10 C11          0.7350    -1.3920    -4.0890 c1         1 4H5       0.149700
     11 C12         -0.3970     0.0070    -1.3470 ca         1 4H5      -0.091200
     12 C13         -1.7530     0.0100    -1.6600 ca         1 4H5      -0.189000
     13 Cl           3.7650    -0.0080    -3.2870 cl         1 4H5      -0.102000
     14 C1          -2.6950     0.0150    -0.6480 ca         1 4H5       0.171100
     15 O           -4.0180     0.0180    -0.9580 os         1 4H5      -0.291900
     16 C           -4.9400     0.0230     0.1330 c3         1 4H5       0.234700
     17 C2          -2.2970     0.0180     0.6860 ca         1 4H5      -0.240000
     18 C3          -0.9600    -0.0020     1.0110 ca         1 4H5       0.013000
     19 N            4.1220     0.0020    -0.6600 nb         1 4H5      -0.549000
     20 H1           2.5610     0.0460     2.0690 ha         1 4H5       0.127000
     21 H2           4.6170     0.0650     1.2970 h4         1 4H5      -0.010900
     22 H3          -0.2280     0.1010    -4.0820 h1         1 4H5       0.061700
     23 H4           1.3910     0.7730    -3.9870 h1         1 4H5       0.061700
     24 H5          -2.3780     0.0770    -2.5420 ha         1 4H5       0.138000
     25 H6          -4.8800     0.9110     0.7510 h1         1 4H5      -0.004633
     26 H7          -6.0040    -0.1570     0.0430 h1         1 4H5      -0.004633
     27 H8          -4.5990    -0.7390     0.8240 h1         1 4H5      -0.004633
     28 H9          -3.0230    -0.0070     1.4890 ha         1 4H5       0.127000
     29 H10         -0.7390     0.3100     2.0240 ha         1 4H5       0.105000
@<TRIPOS>BOND
     1     1     2 1   
     2     1    11 ar  
     3     1    18 ar  
     4     2     3 ar  
     5     2     8 ar  
     6     3     5 ar  
     7     3    20 1   
     8     4     8 1   
     9     4     9 1   
    10     4    11 1   
    11     5    19 ar  
    12     5    21 1   
    13     6     8 ar  
    14     6    13 1   
    15     6    19 ar  
    16     7    10 3   
    17     9    10 1   
    18     9    22 1   
    19     9    23 1   
    20    11    12 ar  
    21    12    14 ar  
    22    12    24 1   
    23    14    15 1   
    24    14    17 ar  
    25    15    16 1   
    26    16    25 1   
    27    16    26 1   
    28    16    27 1   
    29    17    18 ar  
    30    17    28 1   
    31    18    29 1   
@<TRIPOS>SUBSTRUCTURE
     1 4H5         1 TEMP              0 ****  ****    0 ROOT
