@<TRIPOS>MOLECULE
4H6
   44    46     1     0     0
SMALL
bcc


@<TRIPOS>ATOM
      1 C12          0.0000     0.0000     0.0000 ca         1 4H6      -0.092000
      2 C13          1.3830     0.0000     0.0000 ca         1 4H6      -0.061000
      3 C5          -2.7000     0.8050     7.3060 ca         1 4H6       0.098000
      4 C11         -0.6950    -0.0010     1.1950 ca         1 4H6      -0.075000
      5 C14          2.0750     0.0000     1.1960 ca         1 4H6      -0.126000
      6 C6          -2.0620     0.5550     6.1210 ca         1 4H6      -0.316300
      7 C23         -2.0670     3.1200     7.0650 ca         1 4H6       0.505200
      8 C4          -2.7090     2.1190     7.7960 ca         1 4H6      -0.460900
      9 C10         -0.0090    -0.0060     2.3940 ca         1 4H6      -0.129300
     10 C15          1.3790    -0.0010     2.3990 ca         1 4H6       0.026600
     11 C7          -1.4470     1.6040     5.4410 ca         1 4H6       0.557200
     12 C17          2.9330    -1.1900     3.7230 c3         1 4H6       0.105800
     13 C21          2.8670     1.2280     3.7630 c3         1 4H6       0.105800
     14 C18          3.6310    -1.1820     5.0860 c3         1 4H6       0.215900
     15 C20          3.5650     1.2120     5.1250 c3         1 4H6       0.215900
     16 C9          -0.7680    -0.0050     3.6970 c3         1 4H6       0.206100
     17 N22         -1.4710     2.8380     5.9260 nb         1 4H6      -0.635000
     18 N16          2.0760    -0.0020     3.6100 nh         1 4H6      -0.419000
     19 N1          -3.3920     3.7050     9.5290 nz         1 4H6       0.202600
     20 N8          -0.8010     1.3540     4.2420 nu         1 4H6      -0.384900
     21 O3          -3.9460     1.5600     9.6960 o          1 4H6      -0.463100
     22 O19          4.3680     0.0340     5.2300 os         1 4H6      -0.400600
     23 H1          -0.5400     0.0020    -0.9390 ha         1 4H6       0.115000
     24 H2           1.9250     0.0010    -0.9380 ha         1 4H6       0.114000
     25 H3          -3.1880     0.0070     7.8520 ha         1 4H6       0.132000
     26 H4          -1.7780    -0.0030     1.1910 ha         1 4H6       0.109000
     27 H5           3.1580     0.0020     1.1960 ha         1 4H6       0.123000
     28 H6          -2.0370    -0.4500     5.7160 ha         1 4H6       0.149000
     29 H7          -2.0680     4.1390     7.4330 h4         1 4H6      -0.053900
     30 H8           3.6780    -1.1740     2.9370 h1         1 4H6       0.024450
     31 H9           2.3260    -2.0830     3.6350 h1         1 4H6       0.024450
     32 H10          2.2110     2.0880     3.7040 h1         1 4H6       0.024450
     33 H11          3.6110     1.2790     2.9770 h1         1 4H6       0.024450
     34 H12          2.8880    -1.2480     5.8720 h1         1 4H6       0.013200
     35 H13          4.3080    -2.0240     5.1500 h1         1 4H6       0.013200
     36 H14          2.8200     1.2120     5.9120 h1         1 4H6       0.013200
     37 H15          4.1960     2.0880     5.2170 h1         1 4H6       0.013200
     38 H16         -1.7800    -0.3510     3.5250 h1         1 4H6       0.038200
     39 H17         -0.2760    -0.6650     4.4010 h1         1 4H6       0.038200
     40 H18         -3.8350     4.3040     8.8600 hn         1 4H6       0.242467
     41 H19         -3.8930     3.7430    10.3940 hn         1 4H6       0.242467
     42 H20         -0.3960     2.1090     3.7250 hn         1 4H6       0.311800
     43 H131        -2.4540     4.0180     9.6860 hn         1 4H6       0.242467
     44 C2          -3.3890     2.4390     9.0660 c          1 4H6       0.367700
@<TRIPOS>BOND
     1     1     2 ar  
     2     1     4 ar  
     3     1    23 1   
     4     2     5 ar  
     5     2    24 1   
     6     3     6 ar  
     7     3     8 ar  
     8     3    25 1   
     9     4     9 ar  
    10     4    26 1   
    11     5    10 ar  
    12     5    27 1   
    13     6    11 ar  
    14     6    28 1   
    15     7     8 ar  
    16     7    17 ar  
    17     7    29 1   
    18     8    44 1   
    19     9    10 ar  
    20     9    16 1   
    21    10    18 1   
    22    11    17 ar  
    23    11    20 1   
    24    12    14 1   
    25    12    18 1   
    26    12    30 1   
    27    12    31 1   
    28    13    15 1   
    29    13    18 1   
    30    13    32 1   
    31    13    33 1   
    32    14    22 1   
    33    14    34 1   
    34    14    35 1   
    35    15    22 1   
    36    15    36 1   
    37    15    37 1   
    38    16    20 1   
    39    16    38 1   
    40    16    39 1   
    41    19    40 1   
    42    19    41 1   
    43    19    43 1   
    44    19    44 1   
    45    20    42 1   
    46    21    44 2   
@<TRIPOS>SUBSTRUCTURE
     1 4H6         1 TEMP              0 ****  ****    0 ROOT
