@<TRIPOS>MOLECULE
molecule
   44    46     1     0     0
SMALL
bcc


@<TRIPOS>ATOM
      1 C12          0.0000     0.0000     0.0000 ca         1 4H6      -0.126000
      2 C13          1.3830     0.0000     0.0000 ca         1 4H6      -0.094000
      3 C5          -2.7000     0.8050     7.3060 ca         1 4H6       0.041000
      4 C11         -0.6950    -0.0010     1.1950 ca         1 4H6      -0.104000
      5 C14          2.0750     0.0000     1.1960 ca         1 4H6      -0.158000
      6 C6          -2.0620     0.5550     6.1210 ca         1 4H6      -0.320300
      7 C23         -2.0670     3.1200     7.0650 ca         1 4H6       0.515200
      8 C4          -2.7090     2.1190     7.7960 ca         1 4H6      -0.427900
      9 C10         -0.0090    -0.0060     2.3940 ca         1 4H6      -0.120300
     10 C15          1.3790    -0.0010     2.3990 ca         1 4H6       0.101600
     11 C7          -1.4470     1.6040     5.4410 ca         1 4H6       0.755200
     12 C17          2.9330    -1.1900     3.7230 c3         1 4H6       0.127800
     13 C21          2.8670     1.2280     3.7630 c3         1 4H6       0.127800
     14 C18          3.6310    -1.1820     5.0860 c3         1 4H6       0.139400
     15 C20          3.5650     1.2120     5.1250 c3         1 4H6       0.139400
     16 C9          -0.7680    -0.0050     3.6970 c3         1 4H6       0.283100
     17 N22         -1.4710     2.8380     5.9260 nb         1 4H6      -0.747000
     18 N16          2.0760    -0.0020     3.6100 nh         1 4H6      -0.632000
     19 N1          -3.3920     3.7050     9.5290 nz         1 4H6      -0.677400
     20 N8          -0.8010     1.3540     4.2420 nu         1 4H6      -0.836900
     21 O3          -3.9460     1.5600     9.6960 o          1 4H6      -0.444100
     22 O19          4.3680     0.0340     5.2300 os         1 4H6      -0.414600
     23 H1          -0.5400     0.0020    -0.9390 ha         1 4H6       0.145000
     24 H2           1.9250     0.0010    -0.9380 ha         1 4H6       0.146000
     25 H3          -3.1880     0.0070     7.8520 ha         1 4H6       0.172000
     26 H4          -1.7780    -0.0030     1.1910 ha         1 4H6       0.137000
     27 H5           3.1580     0.0020     1.1960 ha         1 4H6       0.147000
     28 H6          -2.0370    -0.4500     5.7160 ha         1 4H6       0.172000
     29 H7          -2.0680     4.1390     7.4330 h4         1 4H6      -0.003900
     30 H8           3.6780    -1.1740     2.9370 h1         1 4H6       0.050450
     31 H9           2.3260    -2.0830     3.6350 h1         1 4H6       0.050450
     32 H10          2.2110     2.0880     3.7040 h1         1 4H6       0.050450
     33 H11          3.6110     1.2790     2.9770 h1         1 4H6       0.050450
     34 H12          2.8880    -1.2480     5.8720 h1         1 4H6       0.054950
     35 H13          4.3080    -2.0240     5.1500 h1         1 4H6       0.054950
     36 H14          2.8200     1.2120     5.9120 h1         1 4H6       0.054950
     37 H15          4.1960     2.0880     5.2170 h1         1 4H6       0.054950
     38 H16         -1.7800    -0.3510     3.5250 h1         1 4H6       0.064700
     39 H17         -0.2760    -0.6650     4.4010 h1         1 4H6       0.064700
     40 H18         -3.8350     4.3040     8.8600 hn         1 4H6       0.473467
     41 H19         -3.8930     3.7430    10.3940 hn         1 4H6       0.473467
     42 H20         -0.3960     2.1090     3.7250 hn         1 4H6       0.470800
     43 H131        -2.4540     4.0180     9.6860 hn         1 4H6       0.473467
     44 C2          -3.3890     2.4390     9.0660 c          1 4H6       0.513700
@<TRIPOS>BOND
     1     2     5 ar
     2     2     1 ar
     3     5    10 ar
     4     1     4 ar
     5    12    18 1
     6    12    14 1
     7    10     9 ar
     8    10    18 1
     9     4     9 ar
    10    13    18 1
    11    13    15 1
    12     9    16 1
    13    14    22 1
    14    22    15 1
    15    16    20 1
    16    20    11 1
    17     6    11 ar
    18     6     3 ar
    19    11    17 ar
    20     3     8 ar
    21    17     7 ar
    22     8     7 ar
    23     8    44 1
    24    21    44 2
    25    44    19 1
    26     1    23 1
    27     2    24 1
    28     3    25 1
    29     4    26 1
    30     5    27 1
    31     6    28 1
    32     7    29 1
    33    12    30 1
    34    12    31 1
    35    13    32 1
    36    13    33 1
    37    14    34 1
    38    14    35 1
    39    15    36 1
    40    15    37 1
    41    16    38 1
    42    16    39 1
    43    19    40 1
    44    19    41 1
    45    20    42 1
    46    43    19 1
@<TRIPOS>SUBSTRUCTURE
     1 4H6         1 TEMP              0 ****  ****    0 ROOT
