@<TRIPOS>MOLECULE
molecule
   48    50     1     0     0
SMALL
bcc


@<TRIPOS>ATOM
      1 C8           0.0000     0.0000     0.0000 ca         1 4H7      -0.127000
      2 C7           1.3830     0.0000     0.0000 ca         1 4H7      -0.094000
      3 C14         -2.6990     0.8080     7.3060 ca         1 4H7       0.040000
      4 C9          -0.6950    -0.0000     1.1950 ca         1 4H7      -0.104000
      5 C6           2.0750     0.0000     1.1950 ca         1 4H7      -0.159000
      6 C13         -2.0620     0.5570     6.1210 ca         1 4H7      -0.319300
      7 C16         -2.0670     3.1230     7.0640 ca         1 4H7       0.516200
      8 C15         -2.7080     2.1230     7.7960 ca         1 4H7      -0.429900
      9 C10         -0.0090    -0.0050     2.3940 ca         1 4H7      -0.122300
     10 C5           1.3790    -0.0010     2.3990 ca         1 4H7       0.104600
     11 C12         -1.4460     1.6060     5.4400 ca         1 4H7       0.755200
     12 C2           2.9320    -1.1890     3.7230 c3         1 4H7       0.168300
     13 C3           2.8640     1.2300     3.7630 c3         1 4H7       0.168300
     14 C1           3.6150    -1.1930     5.0930 c3         1 4H7       0.163300
     15 C4           3.5470     1.2260     5.1330 c3         1 4H7       0.163300
     16 C11         -0.7680    -0.0040     3.6970 c3         1 4H7       0.283100
     17 N3          -1.4700     2.8400     5.9250 nb         1 4H7      -0.747000
     18 N1           2.0760    -0.0010     3.6090 nh         1 4H7      -0.637000
     19 N            4.4030     0.0380     5.2480 n3         1 4H7      -0.730600
     20 N4          -3.3910     3.7100     9.5260 nz         1 4H7      -0.676400
     21 N2          -0.8000     1.3560     4.2410 nu         1 4H7      -0.833900
     22 O           -3.9460     1.5650     9.6960 o          1 4H7      -0.444100
     23 H13         -0.5400     0.0020    -0.9390 ha         1 4H7       0.144000
     24 H12          1.9250     0.0000    -0.9380 ha         1 4H7       0.145000
     25 H19         -3.1870     0.0090     7.8520 ha         1 4H7       0.172000
     26 H14         -1.7780    -0.0020     1.1920 ha         1 4H7       0.136000
     27 H11          3.1580     0.0020     1.1950 ha         1 4H7       0.148000
     28 H18         -2.0360    -0.4470     5.7160 ha         1 4H7       0.172000
     29 H20         -2.0670     4.1420     7.4320 h4         1 4H7      -0.004900
     30 H6           3.6860    -1.1670     2.9460 h1         1 4H7       0.048450
     31 H5           2.3260    -2.0810     3.6210 h1         1 4H7       0.048450
     32 H8           3.6170     1.2750     2.9860 h1         1 4H7       0.048450
     33 H7           2.2090     2.0890     3.6900 h1         1 4H7       0.048450
     34 H4           4.2700    -2.0520     5.1670 h1         1 4H7       0.041450
     35 H3           2.8620    -1.2380     5.8710 h1         1 4H7       0.041450
     36 H10          2.7930     1.2040     5.9110 h1         1 4H7       0.041450
     37 H9           4.1530     2.1180     5.2360 h1         1 4H7       0.041450
     38 H1           5.7830    -0.8300     6.5660 h1         1 4H7       0.036033
     39 H            4.4310     0.0050     7.3430 h1         1 4H7       0.036033
     40 H2           5.7340     0.9380     6.5940 h1         1 4H7       0.036033
     41 H15         -1.7800    -0.3490     3.5260 h1         1 4H7       0.064700
     42 H16         -0.2760    -0.6630     4.4020 h1         1 4H7       0.064700
     43 H21         -3.8920     3.7480    10.3920 hn         1 4H7       0.472800
     44 H22         -2.4540     4.0300     9.6690 hn         1 4H7       0.472800
     45 H17         -0.4030     2.1120     3.7200 hn         1 4H7       0.470800
     46 C            5.1360     0.0380     6.5210 c3         1 4H7       0.153100
     47 H43         -3.8300     4.3140     8.8600 hn         1 4H7       0.472800
     48 C17         -3.3880     2.4430     9.0650 c          1 4H7       0.514700
@<TRIPOS>BOND
     1     2     5 ar
     2     2     1 ar
     3     5    10 ar
     4     1     4 ar
     5    12    18 1
     6    12    14 1
     7    10    18 1
     8    10     9 ar
     9     4     9 ar
    10    18    13 1
    11    14    19 1
    12    19    46 1
    13    19    15 1
    14     9    16 1
    15    13    15 1
    16    16    21 1
    17    21    11 1
    18     6    11 ar
    19     6     3 ar
    20    11    17 ar
    21     3     8 ar
    22    17     7 ar
    23     8     7 ar
    24     8    48 1
    25    48    22 2
    26    48    20 1
    27     1    23 1
    28     2    24 1
    29     3    25 1
    30     4    26 1
    31     5    27 1
    32     6    28 1
    33     7    29 1
    34    12    30 1
    35    12    31 1
    36    13    32 1
    37    13    33 1
    38    14    34 1
    39    14    35 1
    40    15    36 1
    41    15    37 1
    42    46    38 1
    43    46    39 1
    44    46    40 1
    45    16    41 1
    46    16    42 1
    47    20    43 1
    48    20    44 1
    49    21    45 1
    50    47    20 1
@<TRIPOS>SUBSTRUCTURE
     1 4H7         1 TEMP              0 ****  ****    0 ROOT
