@<TRIPOS>MOLECULE
4H7
   48    50     1     0     0
SMALL
bcc


@<TRIPOS>ATOM
      1 C8           0.0000     0.0000     0.0000 ca         1 4H7      -0.094000
      2 C7           1.3830     0.0000     0.0000 ca         1 4H7      -0.062000
      3 C14         -2.6990     0.8080     7.3060 ca         1 4H7       0.097000
      4 C9          -0.6950    -0.0000     1.1950 ca         1 4H7      -0.075000
      5 C6           2.0750     0.0000     1.1950 ca         1 4H7      -0.127000
      6 C13         -2.0620     0.5570     6.1210 ca         1 4H7      -0.315300
      7 C16         -2.0670     3.1230     7.0640 ca         1 4H7       0.505200
      8 C15         -2.7080     2.1230     7.7960 ca         1 4H7      -0.462900
      9 C10         -0.0090    -0.0050     2.3940 ca         1 4H7      -0.131300
     10 C5           1.3790    -0.0010     2.3990 ca         1 4H7       0.030600
     11 C12         -1.4460     1.6060     5.4400 ca         1 4H7       0.556200
     12 C2           2.9320    -1.1890     3.7230 c3         1 4H7       0.148800
     13 C3           2.8640     1.2300     3.7630 c3         1 4H7       0.148800
     14 C1           3.6150    -1.1930     5.0930 c3         1 4H7       0.155300
     15 C4           3.5470     1.2260     5.1330 c3         1 4H7       0.155300
     16 C11         -0.7680    -0.0040     3.6970 c3         1 4H7       0.206100
     17 N3          -1.4700     2.8400     5.9250 nb         1 4H7      -0.635000
     18 N1           2.0760    -0.0010     3.6090 nh         1 4H7      -0.426000
     19 N            4.4030     0.0380     5.2480 n3         1 4H7      -0.544600
     20 N4          -3.3910     3.7100     9.5260 nz         1 4H7       0.203600
     21 N2          -0.8000     1.3560     4.2410 nu         1 4H7      -0.380900
     22 O           -3.9460     1.5650     9.6960 o          1 4H7      -0.464100
     23 H13         -0.5400     0.0020    -0.9390 ha         1 4H7       0.115000
     24 H12          1.9250     0.0000    -0.9380 ha         1 4H7       0.114000
     25 H19         -3.1870     0.0090     7.8520 ha         1 4H7       0.132000
     26 H14         -1.7780    -0.0020     1.1920 ha         1 4H7       0.108000
     27 H11          3.1580     0.0020     1.1950 ha         1 4H7       0.124000
     28 H18         -2.0360    -0.4470     5.7160 ha         1 4H7       0.149000
     29 H20         -2.0670     4.1420     7.4320 h4         1 4H7      -0.053900
     30 H6           3.6860    -1.1670     2.9460 h1         1 4H7       0.021450
     31 H5           2.3260    -2.0810     3.6210 h1         1 4H7       0.021450
     32 H8           3.6170     1.2750     2.9860 h1         1 4H7       0.021450
     33 H7           2.2090     2.0890     3.6900 h1         1 4H7       0.021450
     34 H4           4.2700    -2.0520     5.1670 h1         1 4H7       0.013450
     35 H3           2.8620    -1.2380     5.8710 h1         1 4H7       0.013450
     36 H10          2.7930     1.2040     5.9110 h1         1 4H7       0.013450
     37 H9           4.1530     2.1180     5.2360 h1         1 4H7       0.013450
     38 H1           5.7830    -0.8300     6.5660 h1         1 4H7       0.003033
     39 H            4.4310     0.0050     7.3430 h1         1 4H7       0.003033
     40 H2           5.7340     0.9380     6.5940 h1         1 4H7       0.003033
     41 H15         -1.7800    -0.3490     3.5260 h1         1 4H7       0.038700
     42 H16         -0.2760    -0.6630     4.4020 h1         1 4H7       0.038700
     43 H21         -3.8920     3.7480    10.3920 hn         1 4H7       0.241800
     44 H22         -2.4540     4.0300     9.6690 hn         1 4H7       0.241800
     45 H17         -0.4030     2.1120     3.7200 hn         1 4H7       0.311800
     46 C            5.1360     0.0380     6.5210 c3         1 4H7       0.190100
     47 H43         -3.8300     4.3140     8.8600 hn         1 4H7       0.241800
     48 C17         -3.3880     2.4430     9.0650 c          1 4H7       0.368700
@<TRIPOS>BOND
     1     1     2 ar  
     2     1     4 ar  
     3     1    23 1   
     4     2     5 ar  
     5     2    24 1   
     6     3     6 ar  
     7     3     8 ar  
     8     3    25 1   
     9     4     9 ar  
    10     4    26 1   
    11     5    10 ar  
    12     5    27 1   
    13     6    11 ar  
    14     6    28 1   
    15     7     8 ar  
    16     7    17 ar  
    17     7    29 1   
    18     8    48 1   
    19     9    10 ar  
    20     9    16 1   
    21    10    18 1   
    22    11    17 ar  
    23    11    21 1   
    24    12    14 1   
    25    12    18 1   
    26    12    30 1   
    27    12    31 1   
    28    13    15 1   
    29    13    18 1   
    30    13    32 1   
    31    13    33 1   
    32    14    19 1   
    33    14    34 1   
    34    14    35 1   
    35    15    19 1   
    36    15    36 1   
    37    15    37 1   
    38    16    21 1   
    39    16    41 1   
    40    16    42 1   
    41    19    46 1   
    42    20    43 1   
    43    20    44 1   
    44    20    47 1   
    45    20    48 1   
    46    21    45 1   
    47    22    48 2   
    48    38    46 1   
    49    39    46 1   
    50    40    46 1   
@<TRIPOS>SUBSTRUCTURE
     1 4H7         1 TEMP              0 ****  ****    0 ROOT
