@<TRIPOS>MOLECULE
molecule
   34    34     1     0     0
SMALL
bcc


@<TRIPOS>ATOM
      1 C4           0.0000     0.0000     0.0000 c3         1 4H8      -0.086100
      2 C5           2.0410     0.0000     1.4420 c3         1 4H8       0.235800
      3 C7           1.8870    -1.4150     3.4530 ca         1 4H8       1.010900
      4 C10          2.5360    -1.8230     6.0290 ca         1 4H8      -0.595200
      5 N12          3.7590    -1.2180     8.0560 nz         1 4H8      -0.675400
      6 C9           2.9930    -0.6920     5.3440 ca         1 4H8       0.553200
      7 C14          1.7250    -2.7440     5.3310 ca         1 4H8       0.847200
      8 C11          2.8910    -2.0460     7.4400 c          1 4H8       0.524700
      9 C1           2.0410    -1.2480    -0.7220 c3         1 4H8      -0.086100
     10 C3           2.0400     1.2500    -0.7210 c3         1 4H8      -0.086100
     11 C2           1.5310     0.0000     0.0000 c3         1 4H8      -0.092000
     12 N8           2.6510    -0.5280     4.0790 nb         1 4H8      -0.788000
     13 N16          1.4300    -2.5000     4.0590 nb         1 4H8      -0.848000
     14 N15          1.2480    -3.8750     5.9580 nv         1 4H8      -0.972500
     15 N6           1.5530    -1.1960     2.1330 nu         1 4H8      -0.830900
     16 O13          2.4020    -2.9770     8.0510 o          1 4H8      -0.478100
     17 H1          -0.3610    -0.9750     0.3030 hc         1 4H8       0.043811
     18 H2          -0.3610     0.2250    -0.9960 hc         1 4H8       0.043811
     19 H3          -0.3610     0.7500     0.6930 hc         1 4H8       0.043811
     20 H4           3.1250    -0.0000     1.4420 h1         1 4H8       0.063700
     21 H5           1.6800     0.8850     1.9530 h1         1 4H8       0.063700
     22 H6           3.9690    -1.5740     8.9680 hn         1 4H8       0.473467
     23 H7           4.6010    -1.1580     7.5190 hn         1 4H8       0.473467
     24 H8           3.6170     0.0390     5.8430 h4         1 4H8       0.004100
     25 H9           1.3650    -2.0740    -0.5350 hc         1 4H8       0.043811
     26 H10          3.0280    -1.4990    -0.3550 hc         1 4H8       0.043811
     27 H11          2.0890    -1.0550    -1.7870 hc         1 4H8       0.043811
     28 H12          1.6670     1.2560    -1.7390 hc         1 4H8       0.043811
     29 H13          1.6890     2.1340    -0.2030 hc         1 4H8       0.043811
     30 H14          3.1230     1.2440    -0.7340 hc         1 4H8       0.043811
     31 H15          1.7860    -4.3100     6.6810 hn         1 4H8       0.469300
     32 H16          0.3480    -4.2390     5.7160 hn         1 4H8       0.469300
     33 H17          0.9830    -1.8580     1.6450 hn         1 4H8       0.481800
     34 H123         3.3510    -0.3080     8.1370 hn         1 4H8       0.473467
@<TRIPOS>BOND
     1     9    11 1   
     2    10    11 1   
     3     1    11 1   
     4    11     2 1   
     5     2    15 1   
     6    15     3 1   
     7    13     3 ar  
     8    13     7 ar  
     9     3    12 ar  
    10    14     7 1   
    11     7     4 ar  
    12    12     6 ar  
    13     4     6 ar  
    14     4     8 1   
    15    16     8 2   
    16     8     5 1   
    17     1    17 1   
    18     1    18 1   
    19     1    19 1   
    20     2    20 1   
    21     2    21 1   
    22     5    22 1   
    23     5    23 1   
    24     6    24 1   
    25     9    25 1   
    26     9    26 1   
    27     9    27 1   
    28    10    28 1   
    29    10    29 1   
    30    10    30 1   
    31    14    31 1   
    32    14    32 1   
    33    15    33 1   
    34    34     5 1   
@<TRIPOS>SUBSTRUCTURE
     1 4H8         1 TEMP              0 ****  ****    0 ROOT
