@<TRIPOS>MOLECULE
4H8
   34    34     1     0     0
SMALL
bcc


@<TRIPOS>ATOM
      1 C4           0.0000     0.0000     0.0000 c3         1 4H8       0.004900
      2 C5           2.0410     0.0000     1.4420 c3         1 4H8       0.144800
      3 C7           1.8870    -1.4150     3.4530 ca         1 4H8       0.773900
      4 C10          2.5360    -1.8230     6.0290 ca         1 4H8      -0.622200
      5 N12          3.7590    -1.2180     8.0560 nz         1 4H8       0.207600
      6 C9           2.9930    -0.6920     5.3440 ca         1 4H8       0.548200
      7 C14          1.7250    -2.7440     5.3310 ca         1 4H8       0.651200
      8 C11          2.8910    -2.0460     7.4400 c          1 4H8       0.378700
      9 C1           2.0410    -1.2480    -0.7220 c3         1 4H8       0.004900
     10 C3           2.0400     1.2500    -0.7210 c3         1 4H8       0.004900
     11 C2           1.5310     0.0000     0.0000 c3         1 4H8      -0.089000
     12 N8           2.6510    -0.5280     4.0790 nb         1 4H8      -0.682000
     13 N16          1.4300    -2.5000     4.0590 nb         1 4H8      -0.762000
     14 N15          1.2480    -3.8750     5.9580 nv         1 4H8      -0.457500
     15 N6           1.5530    -1.1960     2.1330 nu         1 4H8      -0.380900
     16 O13          2.4020    -2.9770     8.0510 o          1 4H8      -0.515100
     17 H1          -0.3610    -0.9750     0.3030 hc         1 4H8       0.012700
     18 H2          -0.3610     0.2250    -0.9960 hc         1 4H8       0.012700
     19 H3          -0.3610     0.7500     0.6930 hc         1 4H8       0.012700
     20 H4           3.1250    -0.0000     1.4420 h1         1 4H8       0.039700
     21 H5           1.6800     0.8850     1.9530 h1         1 4H8       0.039700
     22 H6           3.9690    -1.5740     8.9680 hn         1 4H8       0.241467
     23 H7           4.6010    -1.1580     7.5190 hn         1 4H8       0.241467
     24 H8           3.6170     0.0390     5.8430 h4         1 4H8      -0.046900
     25 H9           1.3650    -2.0740    -0.5350 hc         1 4H8       0.012700
     26 H10          3.0280    -1.4990    -0.3550 hc         1 4H8       0.012700
     27 H11          2.0890    -1.0550    -1.7870 hc         1 4H8       0.012700
     28 H12          1.6670     1.2560    -1.7390 hc         1 4H8       0.012700
     29 H13          1.6890     2.1340    -0.2030 hc         1 4H8       0.012700
     30 H14          3.1230     1.2440    -0.7340 hc         1 4H8       0.012700
     31 H15          1.7860    -4.3100     6.6810 hn         1 4H8       0.297300
     32 H16          0.3480    -4.2390     5.7160 hn         1 4H8       0.297300
     33 H17          0.9830    -1.8580     1.6450 hn         1 4H8       0.322800
     34 H123         3.3510    -0.3080     8.1370 hn         1 4H8       0.241467
@<TRIPOS>BOND
     1     1    11 1   
     2     1    17 1   
     3     1    18 1   
     4     1    19 1   
     5     2    11 1   
     6     2    15 1   
     7     2    20 1   
     8     2    21 1   
     9     3    12 ar  
    10     3    13 ar  
    11     3    15 1   
    12     4     6 ar  
    13     4     7 ar  
    14     4     8 1   
    15     5     8 1   
    16     5    22 1   
    17     5    23 1   
    18     5    34 1   
    19     6    12 ar  
    20     6    24 1   
    21     7    13 ar  
    22     7    14 1   
    23     8    16 2   
    24     9    11 1   
    25     9    25 1   
    26     9    26 1   
    27     9    27 1   
    28    10    11 1   
    29    10    28 1   
    30    10    29 1   
    31    10    30 1   
    32    14    31 1   
    33    14    32 1   
    34    15    33 1   
@<TRIPOS>SUBSTRUCTURE
     1 4H8         1 TEMP              0 ****  ****    0 ROOT
