@<TRIPOS>MOLECULE
molecule
   26    27     1     0     0
SMALL
bcc


@<TRIPOS>ATOM
      1 C4           0.0000     0.0000     0.0000 ca         1 4H9      -0.215500
      2 C5           1.3770     0.0000     0.0000 ca         1 4H9      -0.034500
      3 C6           2.0730     0.0000     1.2130 ca         1 4H9      -0.210600
      4 C7           1.3670     0.0010     2.4200 ca         1 4H9      -0.034500
      5 C8          -0.0090     0.0010     2.4100 ca         1 4H9      -0.215500
      6 N12          3.6650     0.1600     3.6730 nc         1 4H9      -0.581800
      7 C13          4.6580     0.2900     4.5100 cd         1 4H9       0.623900
      8 C15          5.5660     0.2430     2.5420 cc         1 4H9       0.760400
      9 C3          -0.6980     0.0060     1.2020 ca         1 4H9       0.177100
     10 C9           3.5470    -0.0000     1.2190 c          1 4H9       0.620500
     11 C1          -2.7090     0.0120     2.4680 c3         1 4H9       0.127700
     12 N14          5.8070     0.3410     3.8310 nd         1 4H9      -0.813000
     13 N11          4.2160     0.1250     2.3810 n          1 4H9      -0.083500
     14 O10          4.1590    -0.1140     0.1740 o          1 4H9      -0.585100
     15 O2          -2.0550     0.0060     1.1970 os         1 4H9      -0.324900
     16 H3          -0.5400     0.0020    -0.9390 ha         1 4H9       0.144500
     17 H1           1.9200    -0.0030    -0.9370 ha         1 4H9       0.173500
     18 H2           1.9030    -0.0010     3.3610 ha         1 4H9       0.173500
     19 H4          -0.5570     0.0030     3.3450 ha         1 4H9       0.144500
     20 H5           4.5650     0.3480     5.5880 h5         1 4H9       0.080100
     21 H6          -2.4260    -0.8740     3.0230 h1         1 4H9       0.044700
     22 H7          -3.7820     0.0190     2.3210 h1         1 4H9       0.044700
     23 H8          -2.4140     0.8950     3.0210 h1         1 4H9       0.044700
     24 H10          6.3320    -0.2320     0.6790 hn         1 4H9       0.464800
     25 H9           7.3420     0.8020     1.6370 hn         1 4H9       0.464800
     26 N16          6.5080     0.2580     1.5340 nv         1 4H9      -0.990500
@<TRIPOS>BOND
     1    11    15 1
     2    15     9 1
     3     9     1 ar
     4     9     5 ar
     5     1     2 ar
     6     5     4 ar
     7     2     3 ar
     8     4     3 ar
     9     3    10 1
    10     6    13 1
    11     6     7 2
    12    10    13 1
    13    10    14 2
    14    13     8 1
    15     7    12 1
    16     8    12 2
    17     8    26 1
    18     1    16 1
    19     2    17 1
    20     4    18 1
    21     5    19 1
    22     7    20 1
    23    11    21 1
    24    11    22 1
    25    11    23 1
    26    26    24 1
    27    26    25 1
@<TRIPOS>SUBSTRUCTURE
     1 4H9         1 TEMP              0 ****  ****    0 ROOT
