@<TRIPOS>MOLECULE
molecule
   18    17     1     0     0
SMALL
bcc


@<TRIPOS>ATOM
      1 OA           0.0000     0.0000     0.0000 oh         1 4HA      -0.598800
      2 CB           1.4290     0.0000     0.0000 c3         1 4HA       0.149400
      3 CG           1.9380     0.0000     1.4430 c3         1 4HA      -0.077400
      4 CD           3.4690    -0.0000     1.4430 c3         1 4HA      -0.112400
      5 CE           3.9780    -0.0000     2.8860 c3         1 4HA       0.092800
      6 NZ           5.4470    -0.0000     2.8860 nz         1 4HA      -0.811600
      7 HA          -0.3140    -0.0000    -0.8890 ho         1 4HA       0.424000
      8 HB2          1.7900     0.8850    -0.5110 h1         1 4HA       0.027700
      9 HB3          1.7900    -0.8850    -0.5110 h1         1 4HA       0.027700
     10 HG2          1.5770     0.8850     1.9530 hc         1 4HA       0.071700
     11 HG3          1.5770    -0.8850     1.9530 hc         1 4HA       0.071700
     12 HD2          3.8300    -0.8850     0.9320 hc         1 4HA       0.065700
     13 HD3          3.8300     0.8850     0.9320 hc         1 4HA       0.065700
     14 HE2          3.6170     0.8850     3.3960 hx         1 4HA       0.115700
     15 HE3          3.6170    -0.8850     3.3960 hx         1 4HA       0.115700
     16 HZ1          5.7810    -0.0000     3.8300 hn         1 4HA       0.458133
     17 HZ2          5.7810    -0.8170     2.4140 hn         1 4HA       0.458133
     18 HZ3          5.7810     0.8170     2.4140 hn         1 4HA       0.458133
@<TRIPOS>BOND
     1     1     2 1   
     2     1     7 1   
     3     2     3 1   
     4     2     8 1   
     5     2     9 1   
     6     3     4 1   
     7     3    10 1   
     8     3    11 1   
     9     4     5 1   
    10     4    12 1   
    11     4    13 1   
    12     5     6 1   
    13     5    14 1   
    14     5    15 1   
    15     6    16 1   
    16     6    17 1   
    17     6    18 1   
@<TRIPOS>SUBSTRUCTURE
     1 4HA         1 TEMP              0 ****  ****    0 ROOT
