@<TRIPOS>MOLECULE
molecule
   24    25     1     0     0
SMALL
bcc


@<TRIPOS>ATOM
      1 CA1          0.0000     0.0000     0.0000 cp         1 4HB      -0.042500
      2 CA2          1.3930     0.0000     0.0000 ca         1 4HB      -0.108000
      3 CA3          2.0820     0.0000     1.1950 ca         1 4HB      -0.150000
      4 CA4          1.3880    -0.0010     2.3970 ca         1 4HB       0.105600
      5 OA4          2.0680    -0.0010     3.5740 oh         1 4HB      -0.522100
      6 CA5         -0.0010    -0.0010     2.4000 ca         1 4HB      -0.150000
      7 CA6         -0.6940    -0.0010     1.2080 ca         1 4HB      -0.108000
      8 CB1         -0.7430     0.0060    -1.2840 cp         1 4HB      -0.042500
      9 CB2         -2.1370     0.0050    -1.2840 ca         1 4HB      -0.108000
     10 CB3         -2.8250     0.0120    -2.4790 ca         1 4HB      -0.150000
     11 CB4         -2.1310     0.0190    -3.6820 ca         1 4HB       0.105600
     12 CB5         -0.7430     0.0190    -3.6850 ca         1 4HB      -0.150000
     13 CB6         -0.0490     0.0190    -2.4930 ca         1 4HB      -0.108000
     14 OAM         -2.8120     0.0250    -4.8580 oh         1 4HB      -0.522100
     15 HA2          1.9360     0.0010    -0.9380 ha         1 4HB       0.136000
     16 HA6         -1.7770    -0.0010     1.2110 ha         1 4HB       0.136000
     17 HA3          3.1650     0.0000     1.1960 ha         1 4HB       0.141000
     18 HA4          2.2260    -0.8900     3.8460 ho         1 4HB       0.419000
     19 HA5         -0.5400    -0.0020     3.3400 ha         1 4HB       0.141000
     20 HB2         -2.6790    -0.0000    -0.3470 ha         1 4HB       0.136000
     21 HB6          1.0340     0.0190    -2.4960 ha         1 4HB       0.136000
     22 HB3         -3.9080     0.0120    -2.4800 ha         1 4HB       0.141000
     23 HB5         -0.2030     0.0270    -4.6240 ha         1 4HB       0.141000
     24 HAM         -2.9690    -0.8620    -5.1350 ho         1 4HB       0.419000
@<TRIPOS>BOND
     1     1     2 ar  
     2     1     7 ar  
     3     1     8 1   
     4     2     3 ar  
     5     3     4 ar  
     6     4     5 1   
     7     4     6 ar  
     8     6     7 ar  
     9     8     9 ar  
    10     8    13 ar  
    11     9    10 ar  
    12    10    11 ar  
    13    11    12 ar  
    14    11    14 1   
    15    12    13 ar  
    16     2    15 1   
    17     7    16 1   
    18     3    17 1   
    19     5    18 1   
    20     6    19 1   
    21     9    20 1   
    22    13    21 1   
    23    10    22 1   
    24    12    23 1   
    25    14    24 1   
@<TRIPOS>SUBSTRUCTURE
     1 4HB         1 TEMP              0 ****  ****    0 ROOT
