@<TRIPOS>MOLECULE
4HB
   24    25     1     0     0
SMALL
bcc


@<TRIPOS>ATOM
      1 CA1         0.0100   -0.0490   -0.0200 cp        1 4HB     -0.067000
      2 CA2         1.3520    0.3660   -0.0060 ca        1 4HB     -0.085000
      3 CA3         2.0890    0.3620    1.1710 ca        1 4HB     -0.184500
      4 CA4         1.4760   -0.0680    2.3600 ca        1 4HB      0.125100
      5 OA4         2.2550   -0.0520    3.4940 oh        1 4HB     -0.497100
      6 CA5         0.1380   -0.4860    2.3650 ca        1 4HB     -0.184500
      7 CA6        -0.5850   -0.4730    1.1760 ca        1 4HB     -0.085000
      8 CB1        -0.7530   -0.0400   -1.2650 cp        1 4HB     -0.067000
      9 CB2        -2.0910    0.3860   -1.2740 ca        1 4HB     -0.085000
     10 CB3        -2.8290    0.4000   -2.4510 ca        1 4HB     -0.184500
     11 CB4        -2.2190   -0.0220   -3.6440 ca        1 4HB      0.125100
     12 CB5        -0.8840   -0.4510   -3.6540 ca        1 4HB     -0.184500
     13 CB6        -0.1610   -0.4560   -2.4650 ca        1 4HB     -0.085000
     14 OAM        -2.9980    0.0110   -4.7780 oh        1 4HB     -0.497100
     15 HA2         1.8240    0.7070   -0.9410 ha        1 4HB      0.137000
     16 HA6        -1.6340   -0.8060    1.1750 ha        1 4HB      0.137000
     17 HA3         3.1380    0.6890    1.1890 ha        1 4HB      0.142500
     18 HA4         1.7130   -0.3660    4.2320 ho        1 4HB      0.419000
     19 HA5        -0.3350   -0.8220    3.2980 ha        1 4HB      0.142500
     20 HB2        -2.5610    0.7220   -0.3370 ha        1 4HB      0.137000
     21 HB6         0.8850   -0.7980   -2.4670 ha        1 4HB      0.137000
     22 HB3        -3.8750    0.7350   -2.4660 ha        1 4HB      0.142500
     23 HB5        -0.4140   -0.7820   -4.5910 ha        1 4HB      0.142500
     24 HAM        -2.4580   -0.3010   -5.5190 ho        1 4HB      0.419000
@<TRIPOS>BOND
     1    1    2 ar  
     2    1    7 ar  
     3    1    8 1   
     4    2    3 ar  
     5    2   15 1   
     6    3    4 ar  
     7    3   17 1   
     8    4    5 1   
     9    4    6 ar  
    10    5   18 1   
    11    6    7 ar  
    12    6   19 1   
    13    7   16 1   
    14    8    9 ar  
    15    8   13 ar  
    16    9   10 ar  
    17    9   20 1   
    18   10   11 ar  
    19   10   22 1   
    20   11   12 ar  
    21   11   14 1   
    22   12   13 ar  
    23   12   23 1   
    24   13   21 1   
    25   14   24 1   
@<TRIPOS>SUBSTRUCTURE
     1 4HB         1 TEMP              0 ****  ****    0 ROOT
