@<TRIPOS>MOLECULE
4HD
   56    55     1     0     0
SMALL
bcc


@<TRIPOS>ATOM
      1 O1          8.0790   -1.6230   -1.6740 o         1 4HD     -0.847300
      2 O2          7.6200    0.5410   -1.9610 o         1 4HD     -0.847300
      3 C1          7.6120   -0.5240   -1.2690 c         1 4HD      0.908600
      4 C2          6.9880   -0.4760    0.1370 c3        1 4HD     -0.207400
      5 C3          7.2830    0.8230    0.8510 c3        1 4HD     -0.086400
      6 C4          6.1040    1.7960    0.8150 c3        1 4HD      0.179300
      7 C5          6.5090    3.1130    1.4070 c2        1 4HD     -0.117200
      8 C6          6.6040    3.4010    2.7130 ce        1 4HD     -0.197000
      9 C7          6.3270    2.4780    3.7910 ce        1 4HD     -0.101000
     10 C8          6.4920    2.7480    5.0950 c2        1 4HD     -0.201200
     11 C9          7.0000    4.0380    5.6210 c3        1 4HD     -0.016000
     12 C10         7.0480    4.0990    7.1030 c2        1 4HD     -0.153200
     13 C11         7.7010    5.0460    7.7850 c2        1 4HD     -0.190200
     14 C12         8.4730    6.1330    7.1360 c3        1 4HD     -0.019000
     15 C13         8.9620    7.1670    8.0780 c2        1 4HD     -0.164200
     16 C14         9.7920    8.1550    7.7220 c2        1 4HD     -0.178200
     17 C15        10.3250    8.3160    6.3490 c3        1 4HD     -0.020000
     18 C16        11.1270    9.5470    6.1560 c2        1 4HD     -0.173200
     19 C17        11.7030    9.8780    4.9940 c2        1 4HD     -0.169200
     20 C18        11.6030    9.0500    3.7690 c3        1 4HD     -0.020000
     21 C19        12.3290    9.6110    2.6040 c2        1 4HD     -0.180200
     22 C20        12.3490    9.0290    1.4000 c2        1 4HD     -0.167200
     23 C21        11.6520    7.7600    1.0830 c3        1 4HD     -0.053200
     24 C22        11.8600    7.3230   -0.3440 c3        1 4HD     -0.092100
     25 O3          5.5980    2.0260   -0.4870 oh        1 4HD     -0.645800
     26 H2C1        5.8840   -0.6180    0.0200 hc        1 4HD      0.033700
     27 H2C2        7.3850   -1.3360    0.7320 hc        1 4HD      0.033700
     28 H3C1        8.1680    1.3150    0.3650 hc        1 4HD      0.041200
     29 H3C2        7.5390    0.6320    1.9250 hc        1 4HD      0.041200
     30 H4          5.2360    1.3680    1.3980 h1        1 4HD      0.039700
     31 H5          6.7320    3.8880    0.6530 ha        1 4HD      0.129000
     32 H3          6.2450    1.6840   -1.1360 ho        1 4HD      0.470000
     33 H6          6.9170    4.4140    3.0200 ha        1 4HD      0.104000
     34 H7          5.9580    1.4810    3.4880 ha        1 4HD      0.129000
     35 H8          6.2540    1.9790    5.8460 ha        1 4HD      0.114000
     36 H9C1        8.0310    4.2280    5.2060 hc        1 4HD      0.054700
     37 H9C2        6.3480    4.8800    5.2490 hc        1 4HD      0.054700
     38 H10         6.4970    3.3100    7.6400 ha        1 4HD      0.121000
     39 H11         7.6940    5.0440    8.8860 ha        1 4HD      0.116000
     40 H121        7.8340    6.6270    6.3480 hc        1 4HD      0.058200
     41 H122        9.3510    5.6820    6.5870 hc        1 4HD      0.058200
     42 H13         8.5990    7.0940    9.1160 ha        1 4HD      0.120000
     43 H14        10.1180    8.9000    8.4650 ha        1 4HD      0.118000
     44 H151        9.4690    8.3130    5.6130 hc        1 4HD      0.059200
     45 H152       10.9580    7.4180    6.0910 hc        1 4HD      0.059200
     46 H16        11.2360   10.2040    7.0350 ha        1 4HD      0.119000
     47 H17        12.2880   10.8080    4.9100 ha        1 4HD      0.119000
     48 H181       10.5150    8.9170    3.4990 hc        1 4HD      0.058700
     49 H182       11.9960    8.0150    3.9870 hc        1 4HD      0.058700
     50 H19        12.8690   10.5560    2.7740 ha        1 4HD      0.117000
     51 H20        12.9070    9.4910    0.5700 ha        1 4HD      0.120000
     52 H211       12.0140    6.9540    1.7800 hc        1 4HD      0.049700
     53 H212       10.5510    7.8830    1.2820 hc        1 4HD      0.049700
     54 H221       11.4760    8.0950   -1.0540 hc        1 4HD      0.037367
     55 H222       11.3180    6.3660   -0.5370 hc        1 4HD      0.037367
     56 H223       12.9450    7.1630   -0.5540 hc        1 4HD      0.037367
@<TRIPOS>BOND
     1    1    3 1   
     2    2    3 1   
     3    3    4 1   
     4    4    5 1   
     5    4   26 1   
     6    4   27 1   
     7    5    6 1   
     8    5   28 1   
     9    5   29 1   
    10    6    7 1   
    11    6   25 1   
    12    6   30 1   
    13    7    8 2   
    14    7   31 1   
    15    8    9 1   
    16    8   33 1   
    17    9   10 2   
    18    9   34 1   
    19   10   11 1   
    20   10   35 1   
    21   11   12 1   
    22   11   36 1   
    23   11   37 1   
    24   12   13 2   
    25   12   38 1   
    26   13   14 1   
    27   13   39 1   
    28   14   15 1   
    29   14   40 1   
    30   14   41 1   
    31   15   16 2   
    32   15   42 1   
    33   16   17 1   
    34   16   43 1   
    35   17   18 1   
    36   17   44 1   
    37   17   45 1   
    38   18   19 2   
    39   18   46 1   
    40   19   20 1   
    41   19   47 1   
    42   20   21 1   
    43   20   48 1   
    44   20   49 1   
    45   21   22 2   
    46   21   50 1   
    47   22   23 1   
    48   22   51 1   
    49   23   24 1   
    50   23   52 1   
    51   23   53 1   
    52   24   54 1   
    53   24   55 1   
    54   24   56 1   
    55   25   32 1   
@<TRIPOS>SUBSTRUCTURE
     1 4HD         1 TEMP              0 ****  ****    0 ROOT
