@<TRIPOS>MOLECULE
molecule
   56    55     1     0     0
SMALL
bcc


@<TRIPOS>ATOM
      1 O1           0.0000     0.0000     0.0000 o          1 4HD      -0.850800
      2 O2           1.9470     0.0050    -1.0460 o          1 4HD      -0.850800
      3 C1           1.3420     0.0000     0.0000 c          1 4HD       0.892600
      4 C2           2.0960     0.0000     1.3050 c3         1 4HD      -0.186400
      5 C3           3.6000    -0.0010     1.0260 c3         1 4HD      -0.064400
      6 C4           4.3650    -0.0020     2.3510 c3         1 4HD       0.148300
      7 C5           5.8420    -0.1270     2.0780 c2         1 4HD      -0.097200
      8 C6           6.6860     0.7760     2.5650 ce         1 4HD      -0.247000
      9 C7           8.1280     0.6540     2.2980 ce         1 4HD      -0.218000
     10 C8           8.9620     1.6030     2.7100 c2         1 4HD      -0.198200
     11 C9           8.4560     2.7270     3.5760 c3         1 4HD      -0.023000
     12 C10          9.2850     2.8040     4.8330 c2         1 4HD      -0.173200
     13 C11          9.8250     3.9420     5.1920 c2         1 4HD      -0.205200
     14 C12          9.4940     5.2050     4.4390 c3         1 4HD       0.283000
     15 C13          9.0220     6.2590     5.4070 c2         1 4HD      -0.175200
     16 C14          9.5850     7.4420     5.4130 c2         1 4HD      -0.240200
     17 C15         10.5840     7.8070     4.3450 c3         1 4HD       0.040000
     18 C16         10.1750     9.1060     3.6990 c2         1 4HD      -0.239200
     19 C17         11.0270    10.0980     3.6270 c2         1 4HD      -0.166200
     20 C18         12.4600     9.8930     4.0460 c3         1 4HD       0.041000
     21 C19         13.3770    10.3510     2.9430 c2         1 4HD      -0.237200
     22 C20         14.2930    11.2560     3.1850 c2         1 4HD      -0.258200
     23 C21         14.3140    11.9700     4.5110 c3         1 4HD       0.077800
     24 C22         15.6460    11.6990     5.2150 c3         1 4HD      -0.129100
     25 O3           4.1110     1.2200     3.0480 oh         1 4HD      -0.612800
     26 H2C1         1.8350     0.8850     1.8730 hc         1 4HD       0.031700
     27 H2C2         1.8330    -0.8840     1.8730 hc         1 4HD       0.031700
     28 H3C1         3.8620     0.8830     0.4580 hc         1 4HD       0.061200
     29 H3C2         3.8610    -0.8860     0.4580 hc         1 4HD       0.061200
     30 H4           4.0380    -0.8380     2.9570 h1         1 4HD       0.049700
     31 H5           6.2150    -0.9530     1.4850 ha         1 4HD       0.152000
     32 H3           3.7670     1.0270     3.9040 ho         1 4HD       0.398000
     33 H6           6.3130     1.6020     3.1580 ha         1 4HD       0.164000
     34 H7           7.4320     1.3550     1.8530 ha         1 4HD       0.273000
     35 H8           8.4840     2.4750     2.2800 ha         1 4HD       0.144000
     36 H9C1         7.4210     2.5450     3.8370 hc         1 4HD       0.041700
     37 H9C2         8.5330     3.6630     3.0350 hc         1 4HD       0.041700
     38 H10          8.2380     3.0830     4.8310 ha         1 4HD       0.114000
     39 H11         10.3450     4.2050     4.2790 ha         1 4HD       0.001000
     40 H121         8.7120     5.0000     3.7180 hc         1 4HD       0.058700
     41 H122        10.3780     5.5590     3.9220 hc         1 4HD       0.058700
     42 H13          8.6470     6.2270     4.3910 ha         1 4HD       0.024000
     43 H14         10.6270     7.1610     5.5050 ha         1 4HD       0.074000
     44 H151        10.6140     7.0250     3.5960 hc         1 4HD       0.069200
     45 H152        11.5650     7.9190     4.7910 hc         1 4HD       0.069200
     46 H16         10.3720     8.9220     4.7490 ha         1 4HD       0.182000
     47 H17         11.3250    10.1720     4.6660 ha         1 4HD       0.083000
     48 H181        12.6590    10.4670     4.9430 hc         1 4HD       0.052200
     49 H182        12.6310     8.8420     4.2450 hc         1 4HD       0.052200
     50 H19         12.4810    10.9090     3.1850 ha         1 4HD       0.127000
     51 H20         14.7840    10.8150     4.0440 ha         1 4HD       0.047000
     52 H211        14.2020    13.0360     4.3500 hc         1 4HD       0.046200
     53 H212        13.5000    11.6110     5.1290 hc         1 4HD       0.046200
     54 H221        16.4570    11.7990     4.5040 hc         1 4HD       0.044367
     55 H222        15.7810    12.4120     6.0190 hc         1 4HD       0.044367
     56 H223        15.6420    10.6940     5.6200 hc         1 4HD       0.044367
@<TRIPOS>BOND
     1     1     3 1
     2     2     3 1
     3     3     4 1
     4     4     5 1
     5     5     6 1
     6     6     7 1
     7     6    25 1
     8     7     8 2
     9     8     9 1
    10     9    10 2
    11    10    11 1
    12    11    12 1
    13    12    13 2
    14    13    14 1
    15    14    15 1
    16    15    16 2
    17    16    17 1
    18    17    18 1
    19    18    19 2
    20    19    20 1
    21    20    21 1
    22    21    22 2
    23    22    23 1
    24    23    24 1
    25     4    26 1
    26     4    27 1
    27     5    28 1
    28     5    29 1
    29     6    30 1
    30     7    31 1
    31    25    32 1
    32     8    33 1
    33     9    34 1
    34    10    35 1
    35    11    36 1
    36    11    37 1
    37    12    38 1
    38    13    39 1
    39    14    40 1
    40    14    41 1
    41    15    42 1
    42    16    43 1
    43    17    44 1
    44    17    45 1
    45    18    46 1
    46    19    47 1
    47    20    48 1
    48    20    49 1
    49    21    50 1
    50    22    51 1
    51    23    52 1
    52    23    53 1
    53    24    54 1
    54    24    55 1
    55    24    56 1
@<TRIPOS>SUBSTRUCTURE
     1 4HD         1 TEMP              0 ****  ****    0 ROOT
