@<TRIPOS>MOLECULE
4HF
   53    55     1     0     0
SMALL
bcc


@<TRIPOS>ATOM
      1 C5          0.1160    0.9000   -0.5110 c3        1 4HF      0.003800
      2 C4A         1.5720    0.7380   -0.3030 cc        1 4HF     -0.360400
      3 C4          2.2190    1.5450    0.7070 c         1 4HF      0.727700
      4 O4          1.6910    2.4080    1.4340 o         1 4HF     -0.646500
      5 N3          3.6130    1.3340    0.8860 n         1 4HF     -0.502400
      6 C2          4.2800    0.3490    0.1460 cc        1 4HF      0.681800
      7 N2          5.6330    0.0800    0.4790 nh        1 4HF     -0.889800
      8 N1          3.6940   -0.3840   -0.8190 nd        1 4HF     -0.726300
      9 C8A         2.3230   -0.1800   -1.0470 cd        1 4HF      0.433600
     10 N8          1.7420   -0.8960   -2.0850 nh        1 4HF     -0.744000
     11 C7          0.3140   -0.8610   -2.2770 c3        1 4HF      0.210800
     12 C6         -0.4970   -0.3800   -1.0660 c3        1 4HF     -0.082700
     13 C9         -1.9470   -0.1440   -1.4550 c3        1 4HF     -0.071400
     14 C10        -2.6830   -1.4420   -1.7350 c3        1 4HF     -0.001100
     15 C3'        -4.0890   -1.2170   -2.1120 cc        1 4HF     -0.137400
     16 S2'        -5.3640   -1.9510   -1.3230 ss        1 4HF      0.108200
     17 C4'        -4.5340   -0.4160   -3.1530 cd        1 4HF     -0.176000
     18 C5'        -5.9520   -0.4400   -3.2660 cd        1 4HF     -0.107000
     19 C1'        -6.5260   -1.2650   -2.3120 cc        1 4HF     -0.185700
     20 C11        -7.9870   -1.4750   -2.1960 c         1 4HF      0.677700
     21 O11        -8.7840   -0.6530   -2.7020 o         1 4HF     -0.630100
     22 N          -8.4060   -2.6530   -1.6090 n         1 4HF     -0.519900
     23 CA         -9.7410   -2.7870   -1.0500 c3        1 4HF     -0.071300
     24 C          -9.7050   -3.4210    0.3970 c         1 4HF      0.913600
     25 OX1       -10.8080   -3.4900    0.9940 o         1 4HF     -0.820800
     26 OX2        -8.5910   -3.8010    0.8520 o         1 4HF     -0.820800
     27 CB        -10.6710   -3.6490   -1.9090 c3        1 4HF     -0.076400
     28 CG        -11.0710   -2.9810   -3.2110 c3        1 4HF     -0.187400
     29 CD        -10.7290   -3.7950   -4.4180 c         1 4HF      0.637100
     30 OE1       -11.4740   -4.0880   -5.3590 o         1 4HF     -0.542000
     31 OE2        -9.4590   -4.2790   -4.5740 oh        1 4HF     -0.603100
     32 H51        -0.0730    1.7470   -1.2260 hc        1 4HF      0.059700
     33 H52        -0.3800    1.1700    0.4600 hc        1 4HF      0.059700
     34 HN3         4.0720    1.8240    1.6200 hn        1 4HF      0.330500
     35 HN21        6.0870   -0.5530   -0.1460 hn        1 4HF      0.411300
     36 HN22        6.1780    0.8880    0.6860 hn        1 4HF      0.411300
     37 HN8         2.2210   -1.7000   -2.4220 hn        1 4HF      0.434800
     38 H71        -0.0330   -1.8940   -2.5660 h1        1 4HF      0.048200
     39 H72         0.1090   -0.1700   -3.1470 h1        1 4HF      0.048200
     40 H6         -0.4580   -1.1720   -0.2670 hc        1 4HF      0.059700
     41 H91        -1.9980    0.5190   -2.3580 hc        1 4HF      0.054200
     42 H92        -2.4610    0.3980   -0.6170 hc        1 4HF      0.054200
     43 H101       -2.6300   -2.1010   -0.8250 hc        1 4HF      0.046200
     44 H102       -2.1680   -1.9910   -2.5710 hc        1 4HF      0.046200
     45 H4'        -3.8880    0.1660   -3.8120 ha        1 4HF      0.144000
     46 H5'        -6.5230    0.1230   -4.0090 ha        1 4HF      0.167000
     47 HN         -7.7260   -3.1590   -1.0670 hn        1 4HF      0.320500
     48 HA        -10.2050   -1.7630   -0.9490 h1        1 4HF      0.065700
     49 HB1       -10.1990   -4.6480   -2.1010 hc        1 4HF      0.064700
     50 HB2       -11.5880   -3.8340   -1.2840 hc        1 4HF      0.064700
     51 HG1       -12.1760   -2.7900   -3.2220 hc        1 4HF      0.087700
     52 HG2       -10.5560   -1.9830   -3.3150 hc        1 4HF      0.087700
     53 HN31       -8.9200   -4.0210   -3.8110 ho        1 4HF      0.444000
@<TRIPOS>BOND
     1    1    2 1   
     2    1   12 1   
     3    1   32 1   
     4    1   33 1   
     5    2    3 1   
     6    2    9 2   
     7    3    4 2   
     8    3    5 1   
     9    5    6 1   
    10    5   34 1   
    11    6    7 1   
    12    6    8 2   
    13    7   35 1   
    14    7   36 1   
    15    8    9 1   
    16    9   10 1   
    17   10   11 1   
    18   10   37 1   
    19   11   12 1   
    20   11   38 1   
    21   11   39 1   
    22   12   13 1   
    23   12   40 1   
    24   13   14 1   
    25   13   41 1   
    26   13   42 1   
    27   14   15 1   
    28   14   43 1   
    29   14   44 1   
    30   15   16 1   
    31   15   17 2   
    32   16   19 1   
    33   17   18 1   
    34   17   45 1   
    35   18   19 2   
    36   18   46 1   
    37   19   20 1   
    38   20   21 2   
    39   20   22 1   
    40   22   23 1   
    41   22   47 1   
    42   23   24 1   
    43   23   27 1   
    44   23   48 1   
    45   24   25 1   
    46   24   26 1   
    47   27   28 1   
    48   27   49 1   
    49   27   50 1   
    50   28   29 1   
    51   28   51 1   
    52   28   52 1   
    53   29   30 2   
    54   29   31 1   
    55   31   53 1   
@<TRIPOS>SUBSTRUCTURE
     1 4HF         1 TEMP              0 ****  ****    0 ROOT
