@<TRIPOS>MOLECULE
molecule
   27    28     1     0     0
SMALL
bcc


@<TRIPOS>ATOM
      1 C1           0.0000     0.0000     0.0000 ca         1 4HG      -0.141000
      2 C2           1.4490     0.0000     0.0000 ca         1 4HG      -0.091000
      3 C3           2.1130     0.0000     1.2960 ca         1 4HG       0.042900
      4 C4          -0.6910     0.0090     1.2840 ca         1 4HG      -0.095000
      5 C5           0.0090     0.0160     2.5700 ca         1 4HG      -0.060000
      6 C6           1.4710     0.0040     2.6010 ca         1 4HG      -0.095300
      7 C7           2.1630    -0.0520     3.8860 ca         1 4HG       0.368200
      8 N1           1.4630    -0.0940     5.1110 nb         1 4HG      -0.583000
      9 C8           0.0480    -0.0710     5.0840 ca         1 4HG       0.343800
     10 C9          -0.7110    -0.0010     3.8360 ca         1 4HG       0.030800
     11 I1           4.1550    -0.1290     1.3410 i          1 4HG      -0.177900
     12 O1          -2.0470     0.0290     3.8950 oh         1 4HG      -0.472100
     13 C10         -0.5760    -0.0850     6.4450 c          1 4HG       0.539600
     14 C11         -2.3600     0.5380     7.8810 c3         1 4HG      -0.035000
     15 C12         -3.8060     1.0210     7.8040 c          1 4HG       0.904600
     16 O2          -4.4520     1.1130     8.8600 o          1 4HG      -0.839300
     17 O3           0.1160    -0.3750     7.4190 o          1 4HG      -0.619100
     18 O4          -4.3200     1.2370     6.6800 o          1 4HG      -0.839300
     19 N2          -1.8640     0.2330     6.5960 ns         1 4HG      -0.507900
     20 H1          -0.5550     0.0000    -0.9300 ha         1 4HG       0.141000
     21 H2           2.0150    -0.0070    -0.9240 ha         1 4HG       0.148000
     22 H4          -1.7750     0.0090     1.2860 ha         1 4HG       0.142000
     23 H7           3.2260    -0.0690     4.0980 h4         1 4HG       0.046100
     24 HO1         -2.3960    -0.7690     3.5320 ho         1 4HG       0.424000
     25 H111        -2.3130    -0.3490     8.5000 h1         1 4HG       0.039200
     26 H112        -1.7480     1.3150     8.3240 h1         1 4HG       0.039200
     27 HN2         -2.4940     0.1530     5.8220 hn         1 4HG       0.348500
@<TRIPOS>BOND
     1     1     2 ar  
     2     1     4 ar  
     3     1    20 1   
     4     2     3 ar  
     5     2    21 1   
     6     3     6 ar  
     7     3    11 1   
     8     4     5 ar  
     9     4    22 1   
    10     5     6 ar  
    11     5    10 ar  
    12     6     7 ar  
    13     7     8 ar  
    14     7    23 1   
    15     8     9 ar  
    16     9    10 ar  
    17     9    13 1   
    18    10    12 1   
    19    12    24 1   
    20    13    17 2   
    21    13    19 1   
    22    14    15 1   
    23    14    19 1   
    24    14    25 1   
    25    14    26 1   
    26    15    16 1   
    27    15    18 1   
    28    19    27 1   
@<TRIPOS>SUBSTRUCTURE
     1 4HG         1 TEMP              0 ****  ****    0 ROOT
