@<TRIPOS>MOLECULE
4HI
   67    69     1     0     0
SMALL
bcc


@<TRIPOS>ATOM
      1 N1           0.0000     0.0000     0.0000 na         1 4HI       0.375100
      2 N3           1.7880     0.0000     1.2410 nc         1 4HI      -0.594000
      3 C4           2.0920     0.0540     5.7410 c3         1 4HI       0.071300
      4 C5           1.3680     0.0000     0.0000 cd         1 4HI       0.241000
      5 C7          -0.8670    -0.0000    -1.1810 c3         1 4HI      -0.090700
      6 C8          -1.1180    -1.4420    -1.6290 c3         1 4HI      -0.078400
      7 C10         -2.4190    -2.8870    -3.1980 c3         1 4HI      -0.089400
      8 C13         -2.7110    -0.8940     1.6440 c3         1 4HI       0.001900
      9 C15          2.5070    -0.3520    -3.5620 ca         1 4HI      -0.103500
     10 C17          4.1100     0.4980     6.5990 ca         1 4HI      -0.089500
     11 C20          5.2910     0.0680     7.1810 ca         1 4HI      -0.114000
     12 C21          3.5800     0.3340    -1.0950 ca         1 4HI      -0.110500
     13 C24          4.3790     0.3320    -2.2200 ca         1 4HI      -0.103500
     14 C26          3.1930    -1.7090     6.8290 ca         1 4HI      -0.089500
     15 O2          -0.2390     0.0120     4.2210 o          1 4HI      -0.613100
     16 N2           2.0470     0.0670     4.2870 ns         1 4HI      -0.246900
     17 C32          3.0600    -0.3910     6.4230 ca         1 4HI      -0.071300
     18 C23          4.3750    -2.1380     7.4120 ca         1 4HI      -0.114000
     19 C29          5.4230    -1.2510     7.5880 ca         1 4HI      -0.103000
     20 C2           0.7210    -0.0110     2.0680 cc         1 4HI       0.183800
     21 C12         -0.4060    -0.0070     1.2980 cd         1 4HI      -0.327900
     22 C14         -2.2940     1.5610     1.8120 c3         1 4HI       0.001900
     23 C27          2.2290     0.0000    -1.2020 ca         1 4HI      -0.076500
     24 C30          3.8460    -0.0100    -3.4520 ca         1 4HI       0.044900
     25 F1           4.6370    -0.0390    -4.5460 f          1 4HI      -0.130900
     26 C18          1.6980    -0.3490    -2.4440 ca         1 4HI      -0.110500
     27 C9          -2.0690    -1.4440    -2.8270 c3         1 4HI       0.205100
     28 O4          -1.4380    -0.8060    -3.9390 oh         1 4HI      -0.578800
     29 C11         -3.4440    -2.8870    -4.3290 c3         1 4HI       0.217100
     30 O3          -2.8510    -2.3970    -5.4950 oh         1 4HI      -0.597800
     31 C35         -3.9350    -4.3120    -4.5680 c3         1 4HI      -0.190400
     32 C36         -5.0320    -4.3010    -5.6310 c          1 4HI       0.982600
     33 O6          -5.5590    -5.3830    -6.0030 o          1 4HI      -0.893800
     34 O7          -5.4130    -3.2110    -6.1300 o          1 4HI      -0.893800
     35 H4           1.2310    -0.5030     6.0900 h1         1 4HI       0.025200
     36 H4A          1.9840     1.0770     6.0800 h1         1 4HI       0.025200
     37 H6          -1.4700     0.0470     3.1240 hc         1 4HI       0.127700
     38 H7          -1.7710     0.5560    -0.9650 h1         1 4HI       0.052700
     39 H7A         -0.3480     0.4640    -2.0100 h1         1 4HI       0.052700
     40 H8          -0.1850    -1.8850    -1.9570 hc         1 4HI       0.042700
     41 H8A         -1.5180    -2.0140    -0.8010 hc         1 4HI       0.042700
     42 H10         -2.8340    -3.3910    -2.3340 hc         1 4HI       0.021700
     43 H10A        -1.5240    -3.4030    -3.5220 hc         1 4HI       0.021700
     44 H13         -3.4590    -1.0190     2.4180 hc         1 4HI       0.004533
     45 H13A        -3.1980    -0.6700     0.7030 hc         1 4HI       0.004533
     46 H13B        -2.1370    -1.8070     1.5450 hc         1 4HI       0.004533
     47 H15          2.2350    -0.5540    -4.5910 ha         1 4HI       0.123000
     48 H21          3.9980     0.6080    -0.1340 ha         1 4HI       0.142000
     49 H24          5.4280     0.5960    -2.1760 ha         1 4HI       0.123000
     50 H26          2.4840    -2.5250     6.8910 ha         1 4HI       0.112500
     51 HN2          2.8960     0.1280     3.7610 hn         1 4HI       0.188500
     52 H23          4.4730    -3.1650     7.7450 ha         1 4HI       0.101000
     53 H29          6.3190    -1.5770     8.1020 ha         1 4HI       0.098000
     54 H14         -2.9520     1.5430     0.9520 hc         1 4HI       0.004533
     55 H14A        -1.4790     2.2500     1.6300 hc         1 4HI       0.004533
     56 H14B        -2.8500     1.8820     2.6850 hc         1 4HI       0.004533
     57 H18          1.1610     0.4660    -2.9160 ha         1 4HI       0.142000
     58 H9          -2.9750    -0.9090    -2.5700 h1         1 4HI      -0.003300
     59 HO4         -1.9900    -0.1110    -4.2570 ho         1 4HI       0.391000
     60 H11         -4.2820    -2.2570    -4.0570 h1         1 4HI       0.029700
     61 HO3         -2.7920    -3.0890    -6.1330 ho         1 4HI       0.408000
     62 H35         -3.1100    -4.9270    -4.9060 hc         1 4HI       0.010700
     63 H35A        -4.3320    -4.7170    -3.6450 hc         1 4HI       0.010700
     64 C6          -1.7070     0.1740     2.0750 c3         1 4HI      -0.030400
     65 C3           0.7670     0.0250     3.5990 c          1 4HI       0.588600
     66 H17          4.0070     1.5280     6.2790 ha         1 4HI       0.112500
     67 H20          6.1290     0.7150     7.4090 ha         1 4HI       0.101000
@<TRIPOS>BOND
     1     1     4 1   
     2     1     5 1   
     3     1    21 1   
     4     2     4 2   
     5     2    20 1   
     6     3    16 1   
     7     3    17 1   
     8     3    35 1   
     9     3    36 1   
    10     4    23 1   
    11     5     6 1   
    12     5    38 1   
    13     5    39 1   
    14     6    27 1   
    15     6    40 1   
    16     6    41 1   
    17     7    27 1   
    18     7    29 1   
    19     7    42 1   
    20     7    43 1   
    21     8    44 1   
    22     8    45 1   
    23     8    46 1   
    24     8    64 1   
    25     9    24 ar  
    26     9    26 ar  
    27     9    47 1   
    28    10    11 ar  
    29    10    17 ar  
    30    10    66 1   
    31    11    19 ar  
    32    11    67 1   
    33    12    13 ar  
    34    12    23 ar  
    35    12    48 1   
    36    13    24 ar  
    37    13    49 1   
    38    14    17 ar  
    39    14    18 ar  
    40    14    50 1   
    41    15    65 2   
    42    16    51 1   
    43    16    65 1   
    44    18    19 ar  
    45    18    52 1   
    46    19    53 1   
    47    20    21 2   
    48    20    65 1   
    49    21    64 1   
    50    22    54 1   
    51    22    55 1   
    52    22    56 1   
    53    22    64 1   
    54    23    26 ar  
    55    24    25 1   
    56    26    57 1   
    57    27    28 1   
    58    27    58 1   
    59    28    59 1   
    60    29    30 1   
    61    29    31 1   
    62    29    60 1   
    63    30    61 1   
    64    31    32 1   
    65    31    62 1   
    66    31    63 1   
    67    32    33 1   
    68    32    34 1   
    69    37    64 1   
@<TRIPOS>SUBSTRUCTURE
     1 4HI         1 TEMP              0 ****  ****    0 ROOT
