@<TRIPOS>MOLECULE
molecule
   67    69     1     0     0
SMALL
bcc


@<TRIPOS>ATOM
      1 N1           0.0000     0.0000     0.0000 na         1 4HI      -0.141900
      2 N3           1.7880     0.0000     1.2410 nc         1 4HI      -0.683000
      3 C4           2.0920     0.0540     5.7410 c3         1 4HI       0.139300
      4 C5           1.3680     0.0000     0.0000 cd         1 4HI       0.455000
      5 C7          -0.8670    -0.0000    -1.1810 c3         1 4HI       0.029300
      6 C8          -1.1180    -1.4420    -1.6290 c3         1 4HI      -0.116400
      7 C10         -2.4190    -2.8870    -3.1980 c3         1 4HI      -0.122400
      8 C13         -2.7110    -0.8940     1.6440 c3         1 4HI      -0.089100
      9 C15          2.5070    -0.3520    -3.5620 ca         1 4HI      -0.150500
     10 C17          4.1100     0.4980     6.5990 ca         1 4HI      -0.110500
     11 C20          5.2910     0.0680     7.1810 ca         1 4HI      -0.144000
     12 C21          3.5800     0.3340    -1.0950 ca         1 4HI      -0.115000
     13 C24          4.3790     0.3320    -2.2200 ca         1 4HI      -0.150500
     14 C26          3.1930    -1.7090     6.8290 ca         1 4HI      -0.110500
     15 O2          -0.2390     0.0120     4.2210 o          1 4HI      -0.578100
     16 N2           2.0470     0.0670     4.2870 ns         1 4HI      -0.607900
     17 C32          3.0600    -0.3910     6.4230 ca         1 4HI      -0.072300
     18 C23          4.3750    -2.1380     7.4120 ca         1 4HI      -0.144000
     19 C29          5.4230    -1.2510     7.5880 ca         1 4HI      -0.124000
     20 C2           0.7210    -0.0110     2.0680 cc         1 4HI       0.223800
     21 C12         -0.4060    -0.0070     1.2980 cd         1 4HI      -0.140900
     22 C14         -2.2940     1.5610     1.8120 c3         1 4HI      -0.089100
     23 C27          2.2290     0.0000    -1.2020 ca         1 4HI      -0.097500
     24 C30          3.8460    -0.0100    -3.4520 ca         1 4HI       0.086900
     25 F1           4.6370    -0.0390    -4.5460 f          1 4HI      -0.144900
     26 C18          1.6980    -0.3490    -2.4440 ca         1 4HI      -0.115000
     27 C9          -2.0690    -1.4440    -2.8270 c3         1 4HI       0.158100
     28 O4          -1.4380    -0.8060    -3.9390 oh         1 4HI      -0.597800
     29 C11         -3.4440    -2.8870    -4.3290 c3         1 4HI       0.173100
     30 O3          -2.8510    -2.3970    -5.4950 oh         1 4HI      -0.602800
     31 C35         -3.9350    -4.3120    -4.5680 c3         1 4HI      -0.235400
     32 C36         -5.0320    -4.3010    -5.6310 c          1 4HI       0.891600
     33 O6          -5.5590    -5.3830    -6.0030 o          1 4HI      -0.841800
     34 O7          -5.4130    -3.2110    -6.1300 o          1 4HI      -0.841800
     35 H4           1.2310    -0.5030     6.0900 h1         1 4HI       0.042700
     36 H4A          1.9840     1.0770     6.0800 h1         1 4HI       0.042700
     37 H6          -1.4700     0.0470     3.1240 hc         1 4HI       0.141700
     38 H7          -1.7710     0.5560    -0.9650 h1         1 4HI       0.070200
     39 H7A         -0.3480     0.4640    -2.0100 h1         1 4HI       0.070200
     40 H8          -0.1850    -1.8850    -1.9570 hc         1 4HI       0.067700
     41 H8A         -1.5180    -2.0140    -0.8010 hc         1 4HI       0.067700
     42 H10         -2.8340    -3.3910    -2.3340 hc         1 4HI       0.045700
     43 H10A        -1.5240    -3.4030    -3.5220 hc         1 4HI       0.045700
     44 H13         -3.4590    -1.0190     2.4180 hc         1 4HI       0.036700
     45 H13A        -3.1980    -0.6700     0.7030 hc         1 4HI       0.036700
     46 H13B        -2.1370    -1.8070     1.5450 hc         1 4HI       0.036700
     47 H15          2.2350    -0.5540    -4.5910 ha         1 4HI       0.152000
     48 H21          3.9980     0.6080    -0.1340 ha         1 4HI       0.167500
     49 H24          5.4280     0.5960    -2.1760 ha         1 4HI       0.152000
     50 H26          2.4840    -2.5250     6.8910 ha         1 4HI       0.139000
     51 HN2          2.8960     0.1280     3.7610 hn         1 4HI       0.325500
     52 H23          4.4730    -3.1650     7.7450 ha         1 4HI       0.127000
     53 H29          6.3190    -1.5770     8.1020 ha         1 4HI       0.125000
     54 H14         -2.9520     1.5430     0.9520 hc         1 4HI       0.036700
     55 H14A        -1.4790     2.2500     1.6300 hc         1 4HI       0.036700
     56 H14B        -2.8500     1.8820     2.6850 hc         1 4HI       0.036700
     57 H18          1.1610     0.4660    -2.9160 ha         1 4HI       0.167500
     58 H9          -2.9750    -0.9090    -2.5700 h1         1 4HI       0.025700
     59 HO4         -1.9900    -0.1110    -4.2570 ho         1 4HI       0.404000
     60 H11         -4.2820    -2.2570    -4.0570 h1         1 4HI       0.058700
     61 HO3         -2.7920    -3.0890    -6.1330 ho         1 4HI       0.415000
     62 H35         -3.1100    -4.9270    -4.9060 hc         1 4HI       0.033700
     63 H35A        -4.3320    -4.7170    -3.6450 hc         1 4HI       0.033700
     64 C6          -1.7070     0.1740     2.0750 c3         1 4HI      -0.038400
     65 C3           0.7670     0.0250     3.5990 c          1 4HI       0.641600
     66 H17          4.0070     1.5280     6.2790 ha         1 4HI       0.139000
     67 H20          6.1290     0.7150     7.4090 ha         1 4HI       0.127000
@<TRIPOS>BOND
     1    21     1 1   
     2     1     4 1   
     3     1     5 1   
     4    20     2 1   
     5     2     4 2   
     6    17     3 1   
     7     3    16 1   
     8     3    35 1   
     9     3    36 1   
    10     4    23 1   
    11     8    64 1   
    12    64    22 1   
    13    64    21 1   
    14    64    37 1   
    15     5     6 1   
    16     5    38 1   
    17     5    39 1   
    18     6    27 1   
    19     6    40 1   
    20     6    41 1   
    21    27     7 1   
    22     7    29 1   
    23     7    42 1   
    24     7    43 1   
    25     8    44 1   
    26     8    45 1   
    27     8    46 1   
    28    26     9 ar  
    29     9    24 ar  
    30     9    47 1   
    31    11    10 ar  
    32    10    17 ar  
    33    10    66 1   
    34    11    19 ar  
    35    11    67 1   
    36    23    12 ar  
    37    12    13 ar  
    38    12    48 1   
    39    13    24 ar  
    40    13    49 1   
    41    18    14 ar  
    42    17    14 ar  
    43    14    50 1   
    44    15    65 2   
    45    16    65 1   
    46    65    20 1   
    47    16    51 1   
    48    19    18 ar  
    49    18    52 1   
    50    19    53 1   
    51    20    21 2   
    52    22    54 1   
    53    22    55 1   
    54    22    56 1   
    55    23    26 ar  
    56    24    25 1   
    57    26    57 1   
    58    28    27 1   
    59    27    58 1   
    60    28    59 1   
    61    29    31 1   
    62    29    30 1   
    63    29    60 1   
    64    30    61 1   
    65    31    32 1   
    66    31    62 1   
    67    31    63 1   
    68    34    32 1   
    69    32    33 1   
@<TRIPOS>SUBSTRUCTURE
     1 4HI         1 TEMP              0 ****  ****    0 ROOT
