@<TRIPOS>MOLECULE
4HK
   48    52     1     0     0
SMALL
bcc


@<TRIPOS>ATOM
      1 N1          -1.2520     0.0020    -2.2420 n1         1 4HK      -0.352800
      2 C1          -0.7080     0.0000    -1.2450 cg         1 4HK       0.112800
      3 C2           0.0000     0.0000     0.0000 ca         1 4HK       0.507300
      4 N2           1.3290     0.0000     0.0000 nb         1 4HK      -0.544000
      5 C6           2.0210     0.0000     1.1170 ca         1 4HK       0.422200
      6 C5           1.3750     0.0010     2.3560 ca         1 4HK      -0.111300
      7 C4          -0.0240     0.0010     2.3960 ca         1 4HK      -0.072000
      8 C3          -0.7150     0.0060     1.2000 ca         1 4HK      -0.180300
      9 C7           2.1600     0.0010     3.6090 cc         1 4HK      -0.176300
     10 C9           3.2470     0.7770     3.8800 cd         1 4HK      -0.320600
     11 C10          4.1620     1.8430     3.3320 c3         1 4HK       0.152200
     12 C11          5.1740     2.1260     4.4150 ca         1 4HK      -0.056300
     13 C22          4.8780     1.3020     5.4970 ca         1 4HK      -0.155500
     14 C8           3.6920     0.4680     5.1760 cd         1 4HK       0.425800
     15 N4           2.8980    -0.4650     5.6680 nc         1 4HK      -0.623800
     16 N3           1.9260    -0.7730     4.7090 na         1 4HK       0.453400
     17 C21          5.6700     1.3650     6.6460 ca         1 4HK      -0.022000
     18 C18          6.7350     2.2380     6.7030 ca         1 4HK      -0.129300
     19 C19          7.5880     2.3030     7.9440 c3         1 4HK       0.037900
     20 C20          7.0860     3.4300     8.8480 c3         1 4HK       0.005900
     21 C13          7.0250     3.0580     5.6200 ca         1 4HK       0.162100
     22 C12          6.2400     2.9980     4.4750 ca         1 4HK      -0.197000
     23 O1           8.0760     3.9160     5.6790 os         1 4HK      -0.284900
     24 C14          8.2460     4.8110     4.5780 c3         1 4HK       0.128100
     25 C17          9.0430     4.1370     3.4400 c3         1 4HK       0.178400
     26 O2           9.9510     5.1120     2.9120 os         1 4HK      -0.405600
     27 C16          9.7720     6.3660     3.5900 c3         1 4HK       0.215400
     28 C15          9.1660     5.9990     4.9680 c3         1 4HK      -0.060400
     29 H4           3.1040    -0.0000     1.0760 h4         1 4HK      -0.002900
     30 H3          -0.5520     0.0030     3.3420 ha         1 4HK       0.116000
     31 H2          -1.7980     0.0060     1.1920 ha         1 4HK       0.125000
     32 H5           3.5950     2.7400     3.1090 hc         1 4HK       0.026700
     33 H6           4.6620     1.4810     2.4410 hc         1 4HK       0.026700
     34 H1           1.2130    -1.4690     4.7970 hn         1 4HK       0.151700
     35 H17          5.4440     0.7310     7.4940 ha         1 4HK       0.117000
     36 H16          7.5270     1.3600     8.4740 hc         1 4HK       0.020200
     37 H15          8.6170     2.4940     7.6650 hc         1 4HK       0.020200
     38 H201         6.3520     4.0220     8.3150 hc         1 4HK       0.003700
     39 H202         7.9190     4.0610     9.1350 hc         1 4HK       0.003700
     40 H203         6.6320     3.0060     9.7360 hc         1 4HK       0.003700
     41 H7           6.4660     3.6370     3.6300 ha         1 4HK       0.126000
     42 H8           7.2910     5.1700     4.2140 h1         1 4HK       0.032700
     43 H14          8.3650     3.8090     2.6620 h1         1 4HK       0.017700
     44 H13          9.5980     3.2940     3.8320 h1         1 4HK       0.017700
     45 H12          9.0880     6.9970     3.0360 h1         1 4HK       0.009200
     46 H11         10.7270     6.8610     3.7210 h1         1 4HK       0.009200
     47 H9           8.5880     6.8220     5.3690 hc         1 4HK       0.035200
     48 H10          9.9380     5.6810     5.6580 hc         1 4HK       0.035200
@<TRIPOS>BOND
     1     1     2 3   
     2     2     3 1   
     3     3     4 ar  
     4     3     8 ar  
     5     4     5 ar  
     6     5     6 ar  
     7     5    29 1   
     8     6     7 ar  
     9     6     9 1   
    10     7     8 ar  
    11     7    30 1   
    12     8    31 1   
    13     9    10 2   
    14     9    16 1   
    15    10    11 1   
    16    10    14 1   
    17    11    12 1   
    18    11    32 1   
    19    11    33 1   
    20    12    13 ar  
    21    12    22 ar  
    22    13    14 1   
    23    13    17 ar  
    24    14    15 2   
    25    15    16 1   
    26    16    34 1   
    27    17    18 ar  
    28    17    35 1   
    29    18    19 1   
    30    18    21 ar  
    31    19    20 1   
    32    19    36 1   
    33    19    37 1   
    34    20    38 1   
    35    20    39 1   
    36    20    40 1   
    37    21    22 ar  
    38    21    23 1   
    39    22    41 1   
    40    23    24 1   
    41    24    25 1   
    42    24    28 1   
    43    24    42 1   
    44    25    26 1   
    45    25    43 1   
    46    25    44 1   
    47    26    27 1   
    48    27    28 1   
    49    27    45 1   
    50    27    46 1   
    51    28    47 1   
    52    28    48 1   
@<TRIPOS>SUBSTRUCTURE
     1 4HK         1 TEMP              0 ****  ****    0 ROOT
