@<TRIPOS>MOLECULE
molecule
   48    52     1     0     0
SMALL
bcc


@<TRIPOS>ATOM
      1 N1          -1.2520     0.0020    -2.2420 n1         1 4HK      -0.332800
      2 C1          -0.7080     0.0000    -1.2450 cg         1 4HK       0.137800
      3 C2           0.0000     0.0000     0.0000 ca         1 4HK       0.513300
      4 N2           1.3290     0.0000     0.0000 nb         1 4HK      -0.657000
      5 C6           2.0210     0.0000     1.1170 ca         1 4HK       0.446200
      6 C5           1.3750     0.0010     2.3560 ca         1 4HK      -0.131300
      7 C4          -0.0240     0.0010     2.3960 ca         1 4HK      -0.091000
      8 C3          -0.7150     0.0060     1.2000 ca         1 4HK      -0.210300
      9 C7           2.1600     0.0010     3.6090 cc         1 4HK      -0.016300
     10 C9           3.2470     0.7770     3.8800 cd         1 4HK      -0.296600
     11 C10          4.1620     1.8430     3.3320 c3         1 4HK       0.052200
     12 C11          5.1740     2.1260     4.4150 ca         1 4HK      -0.042300
     13 C22          4.8780     1.3020     5.4970 ca         1 4HK      -0.150500
     14 C8           3.6920     0.4680     5.1760 cd         1 4HK       0.392800
     15 N4           2.8980    -0.4650     5.6680 nc         1 4HK      -0.474800
     16 N3           1.9260    -0.7730     4.7090 na         1 4HK      -0.036600
     17 C21          5.6700     1.3650     6.6460 ca         1 4HK      -0.057000
     18 C18          6.7350     2.2380     6.7030 ca         1 4HK      -0.110300
     19 C19          7.5880     2.3030     7.9440 c3         1 4HK      -0.029100
     20 C20          7.0860     3.4300     8.8480 c3         1 4HK      -0.087100
     21 C13          7.0250     3.0580     5.6200 ca         1 4HK       0.152100
     22 C12          6.2400     2.9980     4.4750 ca         1 4HK      -0.209000
     23 O1           8.0760     3.9160     5.6790 os         1 4HK      -0.310900
     24 C14          8.2460     4.8110     4.5780 c3         1 4HK       0.104100
     25 C17          9.0430     4.1370     3.4400 c3         1 4HK       0.103400
     26 O2           9.9510     5.1120     2.9120 os         1 4HK      -0.413600
     27 C16          9.7720     6.3660     3.5900 c3         1 4HK       0.129400
     28 C15          9.1660     5.9990     4.9680 c3         1 4HK      -0.111400
     29 H4           3.1040    -0.0000     1.0760 h4         1 4HK       0.043100
     30 H3          -0.5520     0.0030     3.3420 ha         1 4HK       0.149000
     31 H2          -1.7980     0.0060     1.1920 ha         1 4HK       0.154000
     32 H5           3.5950     2.7400     3.1090 hc         1 4HK       0.065700
     33 H6           4.6620     1.4810     2.4410 hc         1 4HK       0.065700
     34 H1           1.2130    -1.4690     4.7970 hn         1 4HK       0.336700
     35 H17          5.4440     0.7310     7.4940 ha         1 4HK       0.148000
     36 H16          7.5270     1.3600     8.4740 hc         1 4HK       0.052700
     37 H15          8.6170     2.4940     7.6650 hc         1 4HK       0.052700
     38 H201         6.3520     4.0220     8.3150 hc         1 4HK       0.036033
     39 H202         7.9190     4.0610     9.1350 hc         1 4HK       0.036033
     40 H203         6.6320     3.0060     9.7360 hc         1 4HK       0.036033
     41 H7           6.4660     3.6370     3.6300 ha         1 4HK       0.140000
     42 H8           7.2910     5.1700     4.2140 h1         1 4HK       0.062700
     43 H14          8.3650     3.8090     2.6620 h1         1 4HK       0.057700
     44 H13          9.5980     3.2940     3.8320 h1         1 4HK       0.057700
     45 H12          9.0880     6.9970     3.0360 h1         1 4HK       0.052200
     46 H11         10.7270     6.8610     3.7210 h1         1 4HK       0.052200
     47 H9           8.5880     6.8220     5.3690 hc         1 4HK       0.070200
     48 H10          9.9380     5.6810     5.6580 hc         1 4HK       0.070200
@<TRIPOS>BOND
     1    20    19 1
     2    19    18 1
     3    28    24 1
     4    28    27 1
     5    17    18 ar
     6    17    13 ar
     7    18    21 ar
     8    24    25 1
     9    24    23 1
    10    15    14 2
    11    15    16 1
    12    27    26 1
    13    13    14 1
    14    13    12 ar
    15    14    10 1
    16    16     9 1
    17    21    23 1
    18    21    22 ar
    19    25    26 1
    20    12    22 ar
    21    12    11 1
    22    10     9 2
    23    10    11 1
    24     9     6 1
    25     6     5 ar
    26     6     7 ar
    27     5     4 ar
    28     7     8 ar
    29     4     3 ar
    30     8     3 ar
    31     3     2 1
    32     2     1 3
    33     5    29 1
    34     7    30 1
    35     8    31 1
    36    11    32 1
    37    11    33 1
    38    16    34 1
    39    17    35 1
    40    19    36 1
    41    19    37 1
    42    20    38 1
    43    20    39 1
    44    20    40 1
    45    22    41 1
    46    24    42 1
    47    25    43 1
    48    25    44 1
    49    27    45 1
    50    27    46 1
    51    28    47 1
    52    28    48 1
@<TRIPOS>SUBSTRUCTURE
     1 4HK         1 TEMP              0 ****  ****    0 ROOT
