@<TRIPOS>MOLECULE
4HM
   19    19     1     0     0
SMALL
bcc


@<TRIPOS>ATOM
      1 C1         -0.0110   -0.1250    0.0700 ca        1 4HM      0.092100
      2 C2          1.3780    0.1130    0.1960 ca        1 4HM      0.066100
      3 C3          1.9450    0.3420    1.4500 ca        1 4HM     -0.194000
      4 C4          1.1070    0.3200    2.5670 ca        1 4HM      0.060100
      5 C5         -0.2700    0.0860    2.4660 ca        1 4HM     -0.140000
      6 C6         -0.8270   -0.1350    1.2100 ca        1 4HM     -0.113000
      7 O7          1.5770    0.5620    3.8750 os        1 4HM     -0.116100
      8 O8          2.8650    0.5840    3.9710 oh        1 4HM     -0.387000
      9 O9          2.0860    0.0820   -0.9930 os        1 4HM     -0.345900
     10 O10        -0.6210   -0.3630   -1.1390 oh        1 4HM     -0.494100
     11 C11         3.4290    0.5500   -0.9280 c3        1 4HM      0.120700
     12 H3          3.0180    0.5430    1.5750 ha        1 4HM      0.158000
     13 H5         -0.8970    0.0850    3.3680 ha        1 4HM      0.154000
     14 H6         -1.9050   -0.3190    1.0950 ha        1 4HM      0.158000
     15 H8          3.1590   -0.3180    4.2380 ho        1 4HM      0.403000
     16 H10         0.0490   -0.2760   -1.8350 ho        1 4HM      0.436000
     17 HC1         3.7590    0.5420   -1.9980 h1        1 4HM      0.048033
     18 HC2         4.0530   -0.1490   -0.3190 h1        1 4HM      0.048033
     19 HC3         3.4710    1.5830   -0.5060 h1        1 4HM      0.048033
@<TRIPOS>BOND
     1    1    2 ar  
     2    1    6 ar  
     3    1   10 1   
     4    2    3 ar  
     5    2    9 1   
     6    3    4 ar  
     7    3   12 1   
     8    4    5 ar  
     9    4    7 1   
    10    5    6 ar  
    11    5   13 1   
    12    6   14 1   
    13    7    8 1   
    14    8   15 1   
    15    9   11 1   
    16   10   16 1   
    17   11   17 1   
    18   11   18 1   
    19   11   19 1   
@<TRIPOS>SUBSTRUCTURE
     1 4HM         1 TEMP              0 ****  ****    0 ROOT
