@<TRIPOS>MOLECULE
molecule
   19    19     1     0     0
SMALL
bcc


@<TRIPOS>ATOM
      1 C1           0.0000     0.0000     0.0000 ca         1 4HM       0.098100
      2 C2           1.3900     0.0000     0.0000 ca         1 4HM       0.097100
      3 C3           2.0820     0.0000     1.2000 ca         1 4HM      -0.193000
      4 C4           1.3860    -0.0050     2.3990 ca         1 4HM       0.098100
      5 C5          -0.0010    -0.0100     2.3960 ca         1 4HM      -0.125000
      6 C6          -0.6910    -0.0100     1.2000 ca         1 4HM      -0.139000
      7 O7           2.0620    -0.0050     3.5780 os         1 4HM      -0.144100
      8 O8           2.2690     1.3990     3.9490 oh         1 4HM      -0.430000
      9 O9           2.0710     0.0050    -1.1770 os         1 4HM      -0.280900
     10 O10         -0.6810     0.0000    -1.1790 oh         1 4HM      -0.504100
     11 C11          3.4620     0.0110    -0.8510 c3         1 4HM       0.099700
     12 H3           3.1650     0.0020     1.2020 ha         1 4HM       0.159000
     13 H5          -0.5430    -0.0160     3.3340 ha         1 4HM       0.147000
     14 H6          -1.7750    -0.0120     1.2000 ha         1 4HM       0.148000
     15 H8           2.7380     1.4430     4.7660 ho         1 4HM       0.410000
     16 H10         -1.0290     0.8610    -1.3400 ho         1 4HM       0.420000
     17 HC1          3.7000    -0.8700    -0.2660 h1         1 4HM       0.046033
     18 HC2          3.6950     0.8990    -0.2760 h1         1 4HM       0.046033
     19 HC3          4.0470     0.0070    -1.7620 h1         1 4HM       0.046033
@<TRIPOS>BOND
     1     1     2 ar  
     2     1     6 ar  
     3     1    10 1   
     4     2     3 ar  
     5     2     9 1   
     6     3     4 ar  
     7     3    12 1   
     8     4     5 ar  
     9     4     7 1   
    10     5     6 ar  
    11     5    13 1   
    12     6    14 1   
    13     7     8 1   
    14     8    15 1   
    15     9    11 1   
    16    10    16 1   
    17    11    17 1   
    18    11    18 1   
    19    11    19 1   
@<TRIPOS>SUBSTRUCTURE
     1 4HM         1 TEMP              0 ****  ****    0 ROOT
