@<TRIPOS>MOLECULE
4HN
   45    48     1     0     0
SMALL
bcc


@<TRIPOS>ATOM
      1 C1          -2.6720    -2.4550     7.4470 cg         1 4HN       0.255800
      2 C2           0.0000     0.0000     0.0000 ca         1 4HN      -0.132000
      3 C3           1.3850     0.0000     0.0000 ca         1 4HN      -0.071000
      4 C4          -0.6950     0.0010     1.1910 ca         1 4HN      -0.042000
      5 C5          -1.7640     0.9280     3.8990 ca         1 4HN      -0.117500
      6 C6          -0.4200    -0.9240     4.6770 ca         1 4HN      -0.117500
      7 C7          -2.4530     0.9300     5.0910 ca         1 4HN      -0.082000
      8 C8          -1.1090    -0.9230     5.8700 ca         1 4HN      -0.082000
      9 C9           2.0820     0.0000     1.1920 ca         1 4HN      -0.218000
     10 C10         -4.3840     2.4320     9.5690 ca         1 4HN      -0.280600
     11 C11         -5.0640     2.4240    10.7490 ca         1 4HN       0.433200
     12 C12         -4.9530     0.1200    10.9520 ca         1 4HN       0.440200
     13 C13         -3.1250    -1.2250     8.0200 ca         1 4HN      -0.131300
     14 C14         -4.2460     0.0210     9.7470 ca         1 4HN      -0.309600
     15 C15         -0.7430     0.0010     3.6840 cp         1 4HN      -0.004000
     16 C16         -2.1300     0.0030     6.0840 cp         1 4HN      -0.134500
     17 C17         -0.0020     0.0010     2.4010 cp         1 4HN      -0.106000
     18 C18         -3.9490     1.2080     9.0270 ca         1 4HN       0.417600
     19 C19          1.3970    -0.0000     2.3980 ca         1 4HN       0.172100
     20 C20         -3.8240    -1.2230     9.2310 ca         1 4HN       0.228100
     21 C21         -2.8700     0.0040     7.3660 cp         1 4HN       0.514800
     22 C22          4.0990    -0.0040     4.9000 c3         1 4HN      -0.022100
     23 C23          3.5080    -0.0030     3.4890 c3         1 4HN       0.209400
     24 N24         -2.2970    -3.4240     6.9840 n1         1 4HN      -0.380800
     25 N25         -5.3270     1.2990    11.3990 nb         1 4HN      -0.611000
     26 N26         -3.2780     1.1520     7.8760 nb         1 4HN      -0.577000
     27 O28          2.0820    -0.0020     3.5710 os         1 4HN      -0.289900
     28 H2          -0.3690     0.1990    -0.9990 ha         1 4HN       0.107000
     29 H3           1.8970     0.3090    -0.9030 ha         1 4HN       0.104000
     30 H4          -1.7440     0.1130     1.4390 ha         1 4HN       0.116000
     31 H9           3.0870    -0.3990     1.1240 ha         1 4HN       0.123000
     32 H5          -2.0030     1.6040     3.0860 ha         1 4HN       0.115500
     33 H7          -3.1080     1.7760     4.9220 ha         1 4HN       0.130000
     34 H6           0.3190    -1.6930     4.4870 ha         1 4HN       0.115500
     35 H8          -0.7040    -1.7640     6.4200 ha         1 4HN       0.130000
     36 H10         -3.9450     3.2810     9.0590 ha         1 4HN       0.136000
     37 H11         -5.2460     3.3970    11.1900 h4         1 4HN      -0.019900
     38 H12         -5.3690    -0.5600    11.6860 h4         1 4HN       0.004100
     39 H27         -4.9760    -2.6400     9.7140 ho         1 4HN       0.420000
     40 H221         5.0740    -0.4760     4.9120 hc         1 4HN       0.011367
     41 H222         4.2040     1.0720     4.9690 hc         1 4HN       0.011367
     42 H223         3.5680    -0.2560     5.8100 hc         1 4HN       0.011367
     43 H231         3.8110    -0.9670     3.1000 h1         1 4HN       0.003200
     44 H232         3.9910     0.8070     2.9550 h1         1 4HN       0.003200
     45 O27         -4.0880    -2.3770     9.8870 oh         1 4HN      -0.484100
@<TRIPOS>BOND
     1     1    13 1   
     2     1    24 3   
     3     2     3 ar  
     4     2     4 ar  
     5     2    28 1   
     6     3     9 ar  
     7     3    29 1   
     8     4    17 ar  
     9     4    30 1   
    10     5     7 ar  
    11     5    15 ar  
    12     5    32 1   
    13     6     8 ar  
    14     6    15 ar  
    15     6    34 1   
    16     7    16 ar  
    17     7    33 1   
    18     8    16 ar  
    19     8    35 1   
    20     9    19 ar  
    21     9    31 1   
    22    10    11 ar  
    23    10    18 ar  
    24    10    36 1   
    25    11    25 ar  
    26    11    37 1   
    27    12    14 ar  
    28    12    25 ar  
    29    12    38 1   
    30    13    20 ar  
    31    13    21 ar  
    32    14    18 ar  
    33    14    20 ar  
    34    15    17 1   
    35    16    21 1   
    36    17    19 ar  
    37    18    26 ar  
    38    19    27 1   
    39    20    45 1   
    40    21    26 ar  
    41    22    23 1   
    42    22    40 1   
    43    22    41 1   
    44    22    42 1   
    45    23    27 1   
    46    23    43 1   
    47    23    44 1   
    48    39    45 1   
@<TRIPOS>SUBSTRUCTURE
     1 4HN         1 TEMP              0 ****  ****    0 ROOT
