@<TRIPOS>MOLECULE
4HO
   16    16     1     0     0
SMALL
bcc


@<TRIPOS>ATOM
      1 O2           0.0000     0.0000     0.0000 o          1 4HO      -0.682500
      2 C1           1.2210     0.0000     0.0000 c          1 4HO       0.578700
      3 C2           1.9230     0.0000     1.2170 cc         1 4HO      -0.241200
      4 C3           3.2870    -0.0010     1.2020 cd         1 4HO      -0.011200
      5 C6           4.0640    -0.0010     2.4930 c3         1 4HO       0.054100
      6 C4           3.9580    -0.0030    -0.0300 cd         1 4HO      -0.198000
      7 C5           3.2510    -0.0040    -1.1840 cc         1 4HO      -0.152400
      8 N1           1.8940    -0.0070    -1.1660 n          1 4HO       0.253500
      9 O1           1.1790    -0.0090    -2.3880 oh         1 4HO      -0.445100
     10 H1           1.3920     0.1560     2.1490 ha         1 4HO       0.141000
     11 H2           5.1020    -0.2370     2.2900 hc         1 4HO       0.013700
     12 H3           3.9990     0.9770     2.9540 hc         1 4HO       0.013700
     13 H4           3.6500    -0.7440     3.1640 hc         1 4HO       0.013700
     14 H5           5.0410    -0.0030    -0.0570 ha         1 4HO       0.125000
     15 H6           3.7750    -0.0080    -2.1320 h4         1 4HO       0.131000
     16 H7           1.1720     0.8620    -2.7500 ho         1 4HO       0.405000
@<TRIPOS>BOND
     1     1     2 2   
     2     2     3 1   
     3     2     8 1   
     4     3     4 2   
     5     3    10 1   
     6     4     5 1   
     7     4     6 1   
     8     5    11 1   
     9     5    12 1   
    10     5    13 1   
    11     6     7 2   
    12     6    14 1   
    13     7     8 1   
    14     7    15 1   
    15     8     9 1   
    16     9    16 1   
@<TRIPOS>SUBSTRUCTURE
     1 4HO         1 TEMP              0 ****  ****    0 ROOT
