@<TRIPOS>MOLECULE
molecule
   18    18     1     0     0
SMALL
bcc


@<TRIPOS>ATOM
      1 C8           0.0000     0.0000     0.0000 c          1 4HP       0.893600
      2 O1           1.2090     0.0000     0.0000 o          1 4HP      -0.844300
      3 O2          -0.6720     0.0000     1.1620 o          1 4HP      -0.844300
      4 C7          -0.7520    -0.0020    -1.3050 c3         1 4HP      -0.154100
      5 C1           0.2280    -0.0020    -2.4510 ca         1 4HP      -0.008300
      6 C2           0.6770    -1.1990    -2.9740 ca         1 4HP      -0.113000
      7 C3           1.5750    -1.2020    -4.0230 ca         1 4HP      -0.156000
      8 C4           2.0260    -0.0020    -4.5520 ca         1 4HP       0.058100
      9 C5           1.5740     1.1980    -4.0240 ca         1 4HP      -0.156000
     10 C6           0.6720     1.1960    -2.9780 ca         1 4HP      -0.113000
     11 O4           2.9090    -0.0030    -5.5840 oh         1 4HP      -0.539100
     12 H71         -1.3740    -0.8870    -1.3620 hc         1 4HP       0.039700
     13 H72         -1.3760     0.8820    -1.3640 hc         1 4HP       0.039700
     14 H2           0.3240    -2.1370    -2.5610 ha         1 4HP       0.130000
     15 H3           1.9260    -2.1420    -4.4330 ha         1 4HP       0.117000
     16 H5           1.9240     2.1360    -4.4370 ha         1 4HP       0.117000
     17 H6           0.3180     2.1330    -2.5660 ha         1 4HP       0.130000
     18 HO4          3.7890    -0.0010    -5.2450 ho         1 4HP       0.403000
@<TRIPOS>BOND
     1     1     2 1   
     2     1     3 1   
     3     1     4 1   
     4     4     5 1   
     5     4    12 1   
     6     4    13 1   
     7     5     6 ar  
     8     5    10 ar  
     9     6     7 ar  
    10     6    14 1   
    11     7     8 ar  
    12     7    15 1   
    13     8     9 ar  
    14     8    11 1   
    15     9    10 ar  
    16     9    16 1   
    17    10    17 1   
    18    11    18 1   
@<TRIPOS>SUBSTRUCTURE
     1 4HP         1 TEMP              0 ****  ****    0 ROOT
