@<TRIPOS>MOLECULE
4HP
   18    18     1     0     0
SMALL
bcc


@<TRIPOS>ATOM
      1 C8         -0.1750   -0.6230   -0.0120 c         1 4HP      0.917600
      2 O1          0.2790   -1.8040    0.0050 o         1 4HP     -0.842300
      3 O2         -0.2280    0.1310    0.9980 o         1 4HP     -0.842300
      4 C7         -0.7510   -0.0770   -1.3400 c3        1 4HP     -0.171100
      5 C1          0.2580    0.0730   -2.4150 ca        1 4HP     -0.044300
      6 C2          1.1890   -0.9500   -2.6600 ca        1 4HP     -0.107500
      7 C3          2.1160   -0.8340   -3.6900 ca        1 4HP     -0.192500
      8 C4          2.1190    0.3200   -4.4870 ca        1 4HP      0.077100
      9 C5          1.2080    1.3560   -4.2530 ca        1 4HP     -0.192500
     10 C6          0.2860    1.2210   -3.2160 ca        1 4HP     -0.107500
     11 O4          3.0060    0.4920   -5.5360 oh        1 4HP     -0.523100
     12 H71        -1.2490    0.9050   -1.1330 hc        1 4HP      0.036700
     13 H72        -1.5360   -0.8020   -1.6810 hc        1 4HP      0.036700
     14 H2          1.1800   -1.8320   -1.9900 ha        1 4HP      0.157000
     15 H3          2.8450   -1.6340   -3.8730 ha        1 4HP      0.119000
     16 H5          1.2310    2.2560   -4.8800 ha        1 4HP      0.119000
     17 H6         -0.4270    2.0360   -3.0210 ha        1 4HP      0.157000
     18 HO4         3.6080   -0.2640   -5.5260 ho        1 4HP      0.403000
@<TRIPOS>BOND
     1    1    2 1   
     2    1    3 1   
     3    1    4 1   
     4    4    5 1   
     5    4   12 1   
     6    4   13 1   
     7    5    6 ar  
     8    5   10 ar  
     9    6    7 ar  
    10    6   14 1   
    11    7    8 ar  
    12    7   15 1   
    13    8    9 ar  
    14    8   11 1   
    15    9   10 ar  
    16    9   16 1   
    17   10   17 1   
    18   11   18 1   
@<TRIPOS>SUBSTRUCTURE
     1 4HP         1 TEMP              0 ****  ****    0 ROOT
