@<TRIPOS>MOLECULE
molecule
   16    16     1     0     0
SMALL
bcc


@<TRIPOS>ATOM
      1 C1           0.0000     0.0000     0.0000 ca         1 4HR      -0.063300
      2 C2           1.3820     0.0000     0.0000 ca         1 4HR      -0.100000
      3 C3           2.0740     0.0000     1.1980 ca         1 4HR      -0.119000
      4 C4           1.3830     0.0000     2.3950 ca         1 4HR      -0.128000
      5 C5           0.0010     0.0000     2.3960 ca         1 4HR      -0.102000
      6 C6          -0.6910     0.0060     1.1990 ca         1 4HR      -0.018900
      7 Br          -2.5830     0.0060     1.1990 br         1 4HR      -0.103100
      8 C           -0.7540    -0.0010    -1.3050 c3         1 4HR       0.181700
      9 O            0.1750    -0.0010    -2.3910 oh         1 4HR      -0.613800
     10 H1           1.9240    -0.0020    -0.9380 ha         1 4HR       0.159000
     11 H2           3.1570    -0.0000     1.1970 ha         1 4HR       0.135000
     12 H3           1.9260    -0.0020     3.3330 ha         1 4HR       0.135000
     13 H4          -0.5410     0.0020     3.3340 ha         1 4HR       0.143000
     14 H5          -1.3760    -0.8860    -1.3620 h1         1 4HR       0.042700
     15 H6          -1.3770     0.8830    -1.3630 h1         1 4HR       0.042700
     16 H7          -0.2970    -0.0020    -3.2080 ho         1 4HR       0.408000
@<TRIPOS>BOND
     1     7     6 1   
     2     5     6 ar  
     3     5     4 ar  
     4     6     1 ar  
     5     4     3 ar  
     6     1     8 1   
     7     1     2 ar  
     8     8     9 1   
     9     3     2 ar  
    10     2    10 1   
    11     3    11 1   
    12     4    12 1   
    13     5    13 1   
    14     8    14 1   
    15     8    15 1   
    16     9    16 1   
@<TRIPOS>SUBSTRUCTURE
     1 4HR         1 TEMP              0 ****  ****    0 ROOT
