@<TRIPOS>MOLECULE
4HR
   16    16     1     0     0
SMALL
bcc


@<TRIPOS>ATOM
      1 C1         -0.0030    0.0000   -0.0250 ca        1 4HR     -0.059300
      2 C2          1.3970   -0.0010   -0.0030 ca        1 4HR     -0.104000
      3 C3          2.0880   -0.0010    1.2060 ca        1 4HR     -0.120000
      4 C4          1.3850    0.0010    2.4100 ca        1 4HR     -0.130000
      5 C5         -0.0080    0.0020    2.4020 ca        1 4HR     -0.106000
      6 C6         -0.7060    0.0010    1.1900 ca        1 4HR     -0.026900
      7 BR         -2.5830    0.0030    1.2460 br        1 4HR     -0.097100
      8 C          -0.7420   -0.0000   -1.3240 c3        1 4HR      0.169700
      9 O           0.1900   -0.0010   -2.3980 oh        1 4HR     -0.601800
     10 H1          1.9480   -0.0020   -0.9580 ha        1 4HR      0.160000
     11 H2          3.1880   -0.0010    1.2080 ha        1 4HR      0.137000
     12 H3          1.9260    0.0010    3.3680 ha        1 4HR      0.137000
     13 H4         -0.5560    0.0030    3.3570 ha        1 4HR      0.146000
     14 H5         -1.3910    0.9170   -1.3940 h1        1 4HR      0.044700
     15 H6         -1.3920   -0.9170   -1.3930 h1        1 4HR      0.044700
     16 H7         -0.3360   -0.0010   -3.2070 ho        1 4HR      0.406000
@<TRIPOS>BOND
     1    1    2 ar  
     2    1    6 ar  
     3    1    8 1   
     4    2    3 ar  
     5    2   10 1   
     6    3    4 ar  
     7    3   11 1   
     8    4    5 ar  
     9    4   12 1   
    10    5    6 ar  
    11    5   13 1   
    12    6    7 1   
    13    8    9 1   
    14    8   14 1   
    15    8   15 1   
    16    9   16 1   
@<TRIPOS>SUBSTRUCTURE
     1 4HR         1 TEMP              0 ****  ****    0 ROOT
