@<TRIPOS>MOLECULE
4HS
   12    12     1     0     0
SMALL
bcc


@<TRIPOS>ATOM
      1 C1           0.0000     0.0000     0.0000 cc         1 4HS      -0.124400
      2 C2           2.0470     0.0000     1.1570 c          1 4HS       0.571700
      3 C3           1.3610     0.0000     2.3840 cc         1 4HS      -0.228200
      4 C4          -0.0030     0.0130     2.3870 cd         1 4HS      -0.007000
      5 O            3.2670    -0.0010     1.1420 o          1 4HS      -0.692500
      6 N            1.3580     0.0000     0.0000 ns         1 4HS       0.093900
      7 C           -0.6910     0.0070     1.1640 cd         1 4HS      -0.095300
      8 Br          -2.5820     0.0080     1.1430 br         1 4HS      -0.085700
      9 H1          -0.5360    -0.0020    -0.9410 h4         1 4HS       0.135000
     10 H2           1.9100     0.0050     3.3180 ha         1 4HS       0.140000
     11 H4          -0.5490     0.0160     3.3230 ha         1 4HS       0.119000
     12 H3           1.8530    -0.0030    -0.8700 hn         1 4HS       0.172500
@<TRIPOS>BOND
     1     1     6 1   
     2     1     7 2   
     3     1     9 1   
     4     2     3 1   
     5     2     5 2   
     6     2     6 1   
     7     3     4 2   
     8     3    10 1   
     9     4     7 1   
    10     4    11 1   
    11     6    12 1   
    12     7     8 1   
@<TRIPOS>SUBSTRUCTURE
     1 4HS         1 TEMP              0 ****  ****    0 ROOT
