@<TRIPOS>MOLECULE
molecule
   12    12     1     0     0
SMALL
bcc


@<TRIPOS>ATOM
      1 C1           0.0000     0.0000     0.0000 cc         1 4HS       0.036600
      2 C2           2.0470     0.0000     1.1570 c          1 4HS       0.680700
      3 C3           1.3610     0.0000     2.3840 cd         1 4HS      -0.253200
      4 C4          -0.0030     0.0130     2.3870 cc         1 4HS      -0.031000
      5 O            3.2670    -0.0010     1.1420 o          1 4HS      -0.643500
      6 N            1.3580     0.0000     0.0000 ns         1 4HS      -0.405100
      7 C           -0.6910     0.0070     1.1640 cc         1 4HS      -0.153300
      8 Br          -2.5820     0.0080     1.1430 br         1 4HS      -0.060700
      9 H1          -0.5360    -0.0020    -0.9410 h4         1 4HS       0.166000
     10 H2           1.9100     0.0050     3.3180 ha         1 4HS       0.171000
     11 H4          -0.5490     0.0160     3.3230 ha         1 4HS       0.151000
     12 H3           1.8530    -0.0030    -0.8700 hn         1 4HS       0.342500
@<TRIPOS>BOND
     1     4     3 2   
     2     4     7 1   
     3     3     2 1   
     4     8     7 1   
     5     7     1 2   
     6     2     5 2   
     7     2     6 1   
     8     1     6 1   
     9     1     9 1   
    10     3    10 1   
    11     4    11 1   
    12     6    12 1   
@<TRIPOS>SUBSTRUCTURE
     1 4HS         1 TEMP              0 ****  ****    0 ROOT
