@<TRIPOS>MOLECULE
4HU
   15    15     1     0     0
SMALL
bcc


@<TRIPOS>ATOM
      1 C1          0.0070    0.0030   -0.0140 ca        1 4HU      0.403600
      2 C2          1.4180    0.0020   -0.0040 ca        1 4HU     -0.206300
      3 C3          2.0800    0.0000    1.2230 ca        1 4HU     -0.097000
      4 C4          1.3340   -0.0010    2.4020 ca        1 4HU     -0.218300
      5 C5         -0.0720    0.0000    2.2970 ca        1 4HU      0.459500
      6 Br         -1.1080   -0.0020    3.8770 br        1 4HU     -0.151200
      7 N          -0.7330    0.0020    1.1230 nb        1 4HU     -0.647000
      8 C          -0.7480    0.0060   -1.3210 c3        1 4HU      0.080100
      9 O           0.1950    0.0110   -2.3840 oh        1 4HU     -0.606800
     10 H1          1.9730    0.0040   -0.9540 ha        1 4HU      0.170000
     11 H2          3.1790   -0.0010    1.2630 ha        1 4HU      0.145000
     12 H3          1.8270   -0.0030    3.3840 ha        1 4HU      0.157000
     13 H4         -1.3980    0.9210   -1.3860 h1        1 4HU      0.050700
     14 H5         -1.3930   -0.9130   -1.3910 h1        1 4HU      0.050700
     15 H6         -0.3210    0.0140   -3.1980 ho        1 4HU      0.410000
@<TRIPOS>BOND
     1    1    2 ar  
     2    1    7 ar  
     3    1    8 1   
     4    2    3 ar  
     5    2   10 1   
     6    3    4 ar  
     7    3   11 1   
     8    4    5 ar  
     9    4   12 1   
    10    5    6 1   
    11    5    7 ar  
    12    8    9 1   
    13    8   13 1   
    14    8   14 1   
    15    9   15 1   
@<TRIPOS>SUBSTRUCTURE
     1 4HU         1 TEMP              0 ****  ****    0 ROOT
