@<TRIPOS>MOLECULE
molecule
   15    15     1     0     0
SMALL
bcc


@<TRIPOS>ATOM
      1 C1           0.0000     0.0000     0.0000 ca         1 4HU       0.427600
      2 C2           1.3830     0.0000     0.0000 ca         1 4HU      -0.214300
      3 C3           2.0570     0.0000     1.2110 ca         1 4HU      -0.096000
      4 C4           1.3150    -0.0010     2.3820 ca         1 4HU      -0.224300
      5 C5          -0.0660    -0.0010     2.3030 ca         1 4HU       0.484500
      6 Br          -1.0930     0.0000     3.8910 br         1 4HU      -0.148200
      7 N           -0.6750     0.0000     1.1330 nb         1 4HU      -0.676000
      8 C           -0.7440     0.0060    -1.3100 c3         1 4HU       0.095100
      9 O            0.1920     0.0120    -2.3910 oh         1 4HU      -0.617800
     10 H1           1.9310     0.0000    -0.9340 ha         1 4HU       0.165000
     11 H2           3.1400    -0.0000     1.2420 ha         1 4HU       0.145000
     12 H3           1.8090    -0.0010     3.3450 ha         1 4HU       0.150000
     13 H4          -1.3660    -0.8780    -1.3770 h1         1 4HU       0.047700
     14 H5          -1.3670     0.8910    -1.3680 h1         1 4HU       0.047700
     15 H6          -0.2740     0.0160    -3.2100 ho         1 4HU       0.413000
@<TRIPOS>BOND
     1     8     9 1
     2     8     1 1
     3     7     1 ar
     4     7     5 ar
     5     1     2 ar
     6     6     5 1
     7     5     4 ar
     8     2     3 ar
     9     3     4 ar
    10     2    10 1
    11     3    11 1
    12     4    12 1
    13     8    13 1
    14     8    14 1
    15     9    15 1
@<TRIPOS>SUBSTRUCTURE
     1 4HU         1 TEMP              0 ****  ****    0 ROOT
