@<TRIPOS>MOLECULE
4HV
   53    55     1     0     0
SMALL
bcc


@<TRIPOS>ATOM
      1 C1          0.0030    0.0440   -0.4650 c3        1 4HV      0.104700
      2 O2          1.2370   -0.6050   -0.1570 os        1 4HV     -0.288900
      3 C3          1.7560   -0.3670    1.0880 ca        1 4HV      0.153100
      4 C4          1.1760    0.4490    2.0610 ca        1 4HV     -0.194000
      5 C5          1.7980    0.6170    3.2970 ca        1 4HV     -0.078000
      6 C6          3.0080   -0.0290    3.5750 ca        1 4HV     -0.184500
      7 C7          3.6050   -0.8550    2.6030 ca        1 4HV     -0.148000
      8 C8          2.9910   -1.0280    1.3690 ca        1 4HV      0.105100
      9 O9          3.4780   -1.8080    0.3440 os        1 4HV     -0.292900
     10 C10         4.7110   -2.4750    0.5920 c3        1 4HV      0.106700
     11 C11         3.6310    0.1600    4.8580 cc        1 4HV      0.379200
     12 C12         3.3010    0.8950    5.9840 cd        1 4HV     -0.224300
     13 C13         4.3590    0.6660    6.9520 cd        1 4HV     -0.354900
     14 C14         5.2720   -0.2040    6.3540 cc        1 4HV      0.335600
     15 O15         4.8500   -0.5240    5.0890 os        1 4HV     -0.316800
     16 C16         4.3610    1.2600    8.2580 c         1 4HV      0.613700
     17 O17         3.4520    1.8150    8.8610 o         1 4HV     -0.432100
     18 N18         5.6910    1.2340    9.0000 n4        1 4HV     -0.679800
     19 C19         5.6930    0.2470   10.1350 c3        1 4HV      0.092500
     20 C21         6.7620    0.6000   11.1800 c3        1 4HV     -0.055100
     21 C22         6.6360    1.9970   11.6740 ca        1 4HV     -0.152300
     22 C23         5.7260    2.3070   12.6930 ca        1 4HV     -0.093000
     23 C24         5.6280    3.6120   13.1720 ca        1 4HV     -0.114000
     24 C25         6.4340    4.6210   12.6420 ca        1 4HV     -0.065000
     25 C26         7.3490    4.3140   11.6250 ca        1 4HV      0.009000
     26 C27         7.4540    3.0010   11.1460 ca        1 4HV     -0.120000
     27 C28         8.1780    5.3290   11.0760 cg        1 4HV      0.201800
     28 N29         8.8560    6.1610   10.6270 n1        1 4HV     -0.305800
     29 C30         5.9200   -1.1900    9.6170 c3        1 4HV      0.107400
     30 O31         7.0360   -1.2220    8.7530 oh        1 4HV     -0.623800
     31 H19         4.6720    0.3060   10.6200 hx        1 4HV      0.123700
     32 H1          0.1230    1.1540   -0.4290 h1        1 4HV      0.054700
     33 H1A        -0.8020   -0.2920    0.2320 h1        1 4HV      0.054700
     34 H1B        -0.2070   -0.2990   -1.5100 h1        1 4HV      0.054700
     35 H4          0.2250    0.9650    1.8610 ha        1 4HV      0.156000
     36 H5          1.3280    1.2630    4.0540 ha        1 4HV      0.138000
     37 H7          4.5560   -1.3580    2.8320 ha        1 4HV      0.152000
     38 H10         5.5280   -1.7380    0.7850 h1        1 4HV      0.050367
     39 H10A        4.6110   -3.1870    1.4470 h1        1 4HV      0.050367
     40 H10B        4.8960   -3.0290   -0.3650 h1        1 4HV      0.050367
     41 H12         2.4290    1.5270    6.1420 ha        1 4HV      0.195000
     42 H14         6.1970   -0.6960    6.6720 h4        1 4HV      0.087100
     43 HN18        5.8690    2.1720    9.3910 hn        1 4HV      0.464800
     44 H21         7.7830    0.4250   10.7450 hc        1 4HV      0.086200
     45 H21A        6.6340   -0.1190   12.0370 hc        1 4HV      0.086200
     46 H23         5.0940    1.5160   13.1260 ha        1 4HV      0.147000
     47 H24         4.9150    3.8490   13.9780 ha        1 4HV      0.164000
     48 H25         6.3570    5.6520   13.0240 ha        1 4HV      0.169000
     49 H27         8.2070    2.7620   10.3790 ha        1 4HV      0.141000
     50 H30         5.0430   -1.5220    8.9950 h1        1 4HV      0.089700
     51 H30A        6.0350   -1.8750   10.4970 h1        1 4HV      0.089700
     52 HO31        7.7960   -1.5660    9.2400 ho        1 4HV      0.441000
     53 H182        6.4510    0.9890    8.3540 hn        1 4HV      0.464800
@<TRIPOS>BOND
     1    1    2 1   
     2    1   32 1   
     3    1   33 1   
     4    1   34 1   
     5    2    3 1   
     6    3    4 ar  
     7    3    8 ar  
     8    4    5 ar  
     9    4   35 1   
    10    5    6 ar  
    11    5   36 1   
    12    6    7 ar  
    13    6   11 1   
    14    7    8 ar  
    15    7   37 1   
    16    8    9 1   
    17    9   10 1   
    18   10   38 1   
    19   10   39 1   
    20   10   40 1   
    21   11   12 2   
    22   11   15 1   
    23   12   13 1   
    24   12   41 1   
    25   13   14 2   
    26   13   16 1   
    27   14   15 1   
    28   14   42 1   
    29   16   17 2   
    30   16   18 1   
    31   18   19 1   
    32   18   43 1   
    33   18   53 1   
    34   19   20 1   
    35   19   29 1   
    36   19   31 1   
    37   20   21 1   
    38   20   44 1   
    39   20   45 1   
    40   21   22 ar  
    41   21   26 ar  
    42   22   23 ar  
    43   22   46 1   
    44   23   24 ar  
    45   23   47 1   
    46   24   25 ar  
    47   24   48 1   
    48   25   26 ar  
    49   25   27 1   
    50   26   49 1   
    51   27   28 3   
    52   29   30 1   
    53   29   50 1   
    54   29   51 1   
    55   30   52 1   
@<TRIPOS>SUBSTRUCTURE
     1 4HV         1 TEMP              0 ****  ****    0 ROOT
