@<TRIPOS>MOLECULE
4HW
   42    45     1     0     0
SMALL
bcc


@<TRIPOS>ATOM
      1 C1           0.0000     0.0000     0.0000 ca         1 4HW      -0.081500
      2 C2           1.3820     0.0000     0.0000 ca         1 4HW      -0.118000
      3 C3           2.0740     0.0000     1.2040 ca         1 4HW      -0.011400
      4 N1           5.4860     1.9130    -1.7860 nb         1 4HW      -0.729000
      5 C7           5.5570     0.5580     0.1270 ca         1 4HW      -0.415600
      6 C6           4.1680     0.6450     0.1970 ca         1 4HW       0.542200
      7 N2           3.5200     1.3560    -0.7230 nb         1 4HW      -0.704000
      8 C5          -0.0060    -0.0010     2.3960 ca         1 4HW      -0.081500
      9 C4           1.3750    -0.0010     2.4040 ca         1 4HW      -0.118000
     10 C8           6.2080     1.2220    -0.9050 ca         1 4HW       0.431800
     11 C9           4.1740     1.9710    -1.6870 ca         1 4HW       0.699900
     12 C10          8.3290     1.3280    -2.1520 cc         1 4HW       0.443400
     13 N4           9.5990     1.2080    -1.8310 nd         1 4HW      -0.796000
     14 C11          9.7130     0.9650    -0.5200 cd         1 4HW       0.723900
     15 N6          10.9120     0.7820     0.1690 nu         1 4HW      -0.274300
     16 C12         12.1310     0.9590    -0.4920 ca         1 4HW       0.006600
     17 C17         12.2170     1.8280    -1.5730 ca         1 4HW      -0.136000
     18 C16         13.4230     2.0010    -2.2230 ca         1 4HW      -0.078000
     19 C15         14.5430     1.3100    -1.8000 ca         1 4HW      -0.130000
     20 C14         14.4610     0.4440    -0.7250 ca         1 4HW      -0.078000
     21 C13         13.2600     0.2700    -0.0670 ca         1 4HW      -0.136000
     22 N5           8.5160     0.9280     0.0160 nc         1 4HW      -0.785800
     23 N3           7.5960     1.1670    -1.0180 na         1 4HW       0.311800
     24 N            3.4720    -0.0010     1.2080 nu         1 4HW      -0.285300
     25 C           -0.6930     0.0040     1.1970 ca         1 4HW      -0.114000
     26 H1          -0.5410     0.0020    -0.9380 ha         1 4HW       0.103000
     27 H2           1.9240    -0.0010    -0.9380 ha         1 4HW       0.120000
     28 H3           6.1150    -0.0120     0.8600 ha         1 4HW       0.152000
     29 H4          -0.5520     0.0010     3.3320 ha         1 4HW       0.103000
     30 H5           1.9120    -0.0030     3.3450 ha         1 4HW       0.120000
     31 H6           3.6170     2.5420    -2.4200 h5         1 4HW      -0.000900
     32 H7           6.8730     1.3770    -3.6240 hn         1 4HW       0.284800
     33 H8           8.4360     1.9290    -4.1310 hn         1 4HW       0.284800
     34 H9          10.8990     0.5750     1.1480 hn         1 4HW       0.290800
     35 H10         11.3390     2.3690    -1.9040 ha         1 4HW       0.125000
     36 H11         13.4910     2.6780    -3.0660 ha         1 4HW       0.099500
     37 H12         15.4880     1.4460    -2.3130 ha         1 4HW       0.101000
     38 H13         15.3420    -0.0940    -0.3960 ha         1 4HW       0.099500
     39 H14         13.1960    -0.4090     0.7740 ha         1 4HW       0.125000
     40 H15          3.9700    -0.5130     1.9090 hn         1 4HW       0.290800
     41 H16         -1.7760     0.0040     1.1940 ha         1 4HW       0.103000
     42 N7           7.8300     1.5810    -3.4140 nv         1 4HW      -0.486500
@<TRIPOS>BOND
     1     1     2 ar  
     2     1    25 ar  
     3     1    26 1   
     4     2     3 ar  
     5     2    27 1   
     6     3     9 ar  
     7     3    24 1   
     8     4    10 ar  
     9     4    11 ar  
    10     5     6 ar  
    11     5    10 ar  
    12     5    28 1   
    13     6     7 ar  
    14     6    24 1   
    15     7    11 ar  
    16     8     9 ar  
    17     8    25 ar  
    18     8    29 1   
    19     9    30 1   
    20    10    23 1   
    21    11    31 1   
    22    12    13 2   
    23    12    23 1   
    24    12    42 1   
    25    13    14 1   
    26    14    15 1   
    27    14    22 2   
    28    15    16 1   
    29    15    34 1   
    30    16    17 ar  
    31    16    21 ar  
    32    17    18 ar  
    33    17    35 1   
    34    18    19 ar  
    35    18    36 1   
    36    19    20 ar  
    37    19    37 1   
    38    20    21 ar  
    39    20    38 1   
    40    21    39 1   
    41    22    23 1   
    42    24    40 1   
    43    25    41 1   
    44    32    42 1   
    45    33    42 1   
@<TRIPOS>SUBSTRUCTURE
     1 4HW         1 TEMP              0 ****  ****    0 ROOT
