@<TRIPOS>MOLECULE
4HX
   48    48     1     0     0
SMALL
bcc


@<TRIPOS>ATOM
      1 NO           0.0000     0.0000     0.0000 no         1 4HX       1.026500
      2 O2           1.2360     0.0000     0.0000 o          1 4HX      -0.408500
      3 O3          -0.7260     0.0000     0.9980 o          1 4HX      -0.408500
      4 N           -6.1210     0.0250    -7.6910 nz         1 4HX       0.075400
      5 CA          -4.7690     0.0440    -7.1260 c3         1 4HX      -0.080500
      6 C           -4.0540    -1.1910    -7.6800 c          1 4HX       0.530100
      7 O           -4.4690    -2.3250    -7.4200 o          1 4HX      -0.542100
      8 CB          -4.8480    -0.0150    -5.5930 c3         1 4HX      -0.092400
      9 CG          -3.4610    -0.0140    -4.9360 c3         1 4HX       0.018600
     10 CD          -3.5340    -0.0080    -3.4110 c3         1 4HX       0.194800
     11 NE          -2.2100    -0.0030    -2.8360 nu         1 4HX      -0.586200
     12 CZ          -1.9400    -0.0010    -1.4750 c2         1 4HX       0.561100
     13 NH1         -0.5650     0.0030    -1.2490 nu         1 4HX      -0.674500
     14 NH2         -2.8980    -0.0030    -0.5900 n2         1 4HX      -0.668100
     15 N2'         -2.9360    -0.9670    -8.4370 n          1 4HX       0.025700
     16 O2'         -2.4440     0.3060    -8.7450 oh         1 4HX      -0.446100
     17 N'          -0.8510    -2.7480   -10.8170 n7         1 4HX      -0.499200
     18 CA'          0.1190    -2.4270    -9.7600 c3         1 4HX      -0.005500
     19 C'           0.9220    -3.6570    -9.4860 c          1 4HX       0.298100
     20 O'           0.4550    -4.7840    -9.6200 o          1 4HX      -0.324100
     21 CB'         -0.6820    -1.9650    -8.5460 c3         1 4HX      -0.050400
     22 CG'         -2.1330    -2.0090    -9.0080 c3         1 4HX       0.039700
     23 CD'         -2.0220    -1.9130   -10.5190 c3         1 4HX       0.031800
     24 HA          -4.2500     0.9430    -7.4360 hx         1 4HX       0.088700
     25 HB1         -4.4910     0.8880    -6.0730 hc         1 4HX       0.055200
     26 HB2         -5.7260     0.3070    -5.0460 hc         1 4HX       0.055200
     27 HG1         -2.9220    -0.8980    -5.2570 hc         1 4HX       0.018200
     28 HG2         -2.9200     0.8650    -5.2640 hc         1 4HX       0.018200
     29 HD1         -4.0690     0.8750    -3.0830 h1         1 4HX       0.023200
     30 HD2         -4.0650    -0.8910    -3.0760 h1         1 4HX       0.023200
     31 HNE         -1.4310    -0.0000    -3.4640 hn         1 4HX       0.279800
     32 HNH1         0.0440     0.0080    -2.0430 hn         1 4HX       0.342800
     33 HNH2        -3.8540    -0.0060    -0.8870 hn         1 4HX       0.337400
     34 H1'1         2.7180    -2.9570    -9.7960 hn         1 4HX       0.249467
     35 H1'2         2.6510    -4.2580    -8.8090 hn         1 4HX       0.249467
     36 HO2'        -2.8530     0.6180    -9.5350 ho         1 4HX       0.411000
     37 HN'         -0.4740    -2.4880   -11.7060 hn         1 4HX       0.281800
     38 HA'          0.7690    -1.6270   -10.0930 h1         1 4HX       0.034700
     39 HB'1        -0.0470    -1.1390    -8.8410 hc         1 4HX       0.056200
     40 HB'2        -0.4170    -2.4950    -7.6390 hc         1 4HX       0.056200
     41 HG'         -2.5570    -2.9710    -8.7460 h1         1 4HX       0.094700
     42 HD'1        -2.6870    -2.7480   -10.3330 h1         1 4HX       0.078700
     43 HD'2        -2.3810    -1.0720   -11.1000 h1         1 4HX       0.078700
     44 HN1         -6.5980    -0.8010    -7.3880 hn         1 4HX       0.236133
     45 N1'          2.2040    -3.3990    -9.0590 nz         1 4HX       0.192600
     46 H2          -6.0650     0.0300    -8.6900 hn         1 4HX       0.236133
     47 H1'3         2.1750    -2.7820    -8.2720 hn         1 4HX       0.249467
     48 HN2         -6.6240     0.8330    -7.3810 hn         1 4HX       0.236133
@<TRIPOS>BOND
     1     1     2 1   
     2     1     3 1   
     3     1    13 1   
     4     4     5 1   
     5     4    44 1   
     6     4    46 1   
     7     4    48 1   
     8     5     6 1   
     9     5     8 1   
    10     5    24 1   
    11     6     7 2   
    12     6    15 1   
    13     8     9 1   
    14     8    25 1   
    15     8    26 1   
    16     9    10 1   
    17     9    27 1   
    18     9    28 1   
    19    10    11 1   
    20    10    29 1   
    21    10    30 1   
    22    11    12 1   
    23    11    31 1   
    24    12    13 1   
    25    12    14 2   
    26    13    32 1   
    27    14    33 1   
    28    15    16 1   
    29    15    22 1   
    30    16    36 1   
    31    17    18 1   
    32    17    23 1   
    33    17    37 1   
    34    18    19 1   
    35    18    21 1   
    36    18    38 1   
    37    19    20 2   
    38    19    45 1   
    39    21    22 1   
    40    21    39 1   
    41    21    40 1   
    42    22    23 1   
    43    22    41 1   
    44    23    42 1   
    45    23    43 1   
    46    34    45 1   
    47    35    45 1   
    48    45    47 1   
@<TRIPOS>SUBSTRUCTURE
     1 4HX         1 TEMP              0 ****  ****    0 ROOT
