@<TRIPOS>MOLECULE
molecule
   48    48     1     0     0
SMALL
bcc


@<TRIPOS>ATOM
      1 NO           0.0000     0.0000     0.0000 no         1 4HX       0.455500
      2 O2           1.2360     0.0000     0.0000 o          1 4HX      -0.173500
      3 O3          -0.7260     0.0000     0.9980 o          1 4HX      -0.173500
      4 N           -6.1210     0.0250    -7.6910 nz         1 4HX      -0.802600
      5 CA          -4.7690     0.0440    -7.1260 c3         1 4HX       0.021500
      6 C           -4.0540    -1.1910    -7.6800 c          1 4HX       0.649100
      7 O           -4.4690    -2.3250    -7.4200 o          1 4HX      -0.521100
      8 CB          -4.8480    -0.0150    -5.5930 c3         1 4HX      -0.074400
      9 CG          -3.4610    -0.0140    -4.9360 c3         1 4HX      -0.089400
     10 CD          -3.5340    -0.0080    -3.4110 c3         1 4HX       0.270800
     11 NE          -2.2100    -0.0030    -2.8360 nu         1 4HX      -0.910200
     12 CZ          -1.9400    -0.0010    -1.4750 c2         1 4HX       0.844100
     13 NH1         -0.5650     0.0030    -1.2490 nu         1 4HX      -0.865500
     14 NH2         -2.8980    -0.0030    -0.5900 n2         1 4HX      -0.857100
     15 N2'         -2.9360    -0.9670    -8.4370 n          1 4HX      -0.345300
     16 O2'         -2.4440     0.3060    -8.7450 oh         1 4HX      -0.376100
     17 N'          -0.8510    -2.7480   -10.8170 n7         1 4HX      -0.726200
     18 CA'          0.1190    -2.4270    -9.7600 c3         1 4HX       0.033500
     19 C'           0.9220    -3.6570    -9.4860 c          1 4HX       0.475100
     20 O'           0.4550    -4.7840    -9.6200 o          1 4HX      -0.324100
     21 CB'         -0.6820    -1.9650    -8.5460 c3         1 4HX      -0.138400
     22 CG'         -2.1330    -2.0090    -9.0080 c3         1 4HX       0.140700
     23 CD'         -2.0220    -1.9130   -10.5190 c3         1 4HX       0.061800
     24 HA          -4.2500     0.9430    -7.4360 hx         1 4HX       0.130700
     25 HB1         -5.3250    -0.9880    -5.5830 hc         1 4HX       0.082700
     26 HB2         -5.4960     0.7560    -5.1930 hc         1 4HX       0.082700
     27 HG1         -2.9220    -0.8980    -5.2570 hc         1 4HX       0.047700
     28 HG2         -2.9200     0.8650    -5.2640 hc         1 4HX       0.047700
     29 HD1         -4.0690     0.8750    -3.0830 h1         1 4HX       0.067700
     30 HD2         -4.0650    -0.8910    -3.0760 h1         1 4HX       0.067700
     31 HNE         -1.4310    -0.0000    -3.4640 hn         1 4HX       0.416800
     32 HNH1         0.0440     0.0080    -2.0430 hn         1 4HX       0.463800
     33 HNH2        -2.6780    -0.0020     0.3860 hn         1 4HX       0.467400
     34 H1'1         2.1740    -2.7980    -8.2590 hn         1 4HX       0.479467
     35 H1'2         2.7160    -2.9510    -9.7930 hn         1 4HX       0.479467
     36 HO2'        -1.7430     0.5240    -8.1530 ho         1 4HX       0.419000
     37 HN'         -0.4740    -2.4880   -11.7060 hn         1 4HX       0.385800
     38 HA'          0.7690    -1.6270   -10.0930 h1         1 4HX       0.052700
     39 HB'1        -0.0470    -1.1390    -8.8410 hc         1 4HX       0.087200
     40 HB'2        -0.4170    -2.4950    -7.6390 hc         1 4HX       0.087200
     41 HG'         -2.5570    -2.9710    -8.7460 h1         1 4HX       0.125700
     42 HD'1        -2.6870    -2.7480   -10.3330 h1         1 4HX       0.118200
     43 HD'2        -2.3820    -1.0720   -11.1000 h1         1 4HX       0.118200
     44 HN1         -6.0650     0.0260    -8.6900 hn         1 4HX       0.469800
     45 N1'          2.2040    -3.3990    -9.0590 nz         1 4HX      -0.691400
     46 H2          -6.6220     0.8350    -7.3840 hn         1 4HX       0.469800
     47 H1'3         2.6530    -4.2580    -8.8120 hn         1 4HX       0.479467
     48 HN2         -6.5990    -0.7990    -7.3850 hn         1 4HX       0.469800
@<TRIPOS>BOND
     1     1    13 1
     2     1     3 1
     3     1     2 1
     4     4     5 1
     5     4    44 1
     6     4    48 1
     7     5     6 1
     8     5     8 1
     9     5    24 1
    10     6    15 1
    11     6     7 2
    12     8     9 1
    13     8    25 1
    14     8    26 1
    15     9    10 1
    16     9    27 1
    17     9    28 1
    18    10    11 1
    19    10    29 1
    20    10    30 1
    21    11    12 1
    22    11    31 1
    23    12    14 2
    24    12    13 1
    25    13    32 1
    26    14    33 1
    27    45    19 1
    28    45    34 1
    29    45    35 1
    30    15    16 1
    31    15    22 1
    32    16    36 1
    33    17    18 1
    34    17    23 1
    35    17    37 1
    36    18    19 1
    37    18    21 1
    38    18    38 1
    39    19    20 2
    40    21    22 1
    41    21    39 1
    42    21    40 1
    43    22    23 1
    44    22    41 1
    45    23    42 1
    46    23    43 1
    47    46     4 1
    48    47    45 1
@<TRIPOS>SUBSTRUCTURE
     1 4HX         1 TEMP              0 ****  ****    0 ROOT
