@<TRIPOS>MOLECULE
molecule
   29    30     1     0     0
SMALL
bcc


@<TRIPOS>ATOM
      1 C1           0.0000     0.0000     0.0000 ca         1 4HY       0.005700
      2 C2           2.2540     1.3000     3.9160 ca         1 4HY       0.120100
      3 C3           1.3830     0.0000     0.0000 ca         1 4HY      -0.075500
      4 C4           1.7850     2.3120     3.0900 ca         1 4HY      -0.161000
      5 C5           2.0740     0.0000     1.1960 ca         1 4HY       0.052400
      6 C6           1.9810     3.6340     3.4400 ca         1 4HY       0.069900
      7 C7           1.3800    -0.0010     2.3970 ca         1 4HY       0.074100
      8 C8           2.6540     3.9500     4.6100 ca         1 4HY       0.085100
      9 C9          -0.0070     0.0000     2.3930 ca         1 4HY       0.052400
     10 C10          3.1270     2.9390     5.4320 ca         1 4HY      -0.129000
     11 C11         -0.6940     0.0050     1.1960 ca         1 4HY      -0.075500
     12 C12          2.9290     1.6170     5.0860 ca         1 4HY      -0.129000
     13 C13         -0.7510     0.0010    -1.3060 c3         1 4HY      -0.159100
     14 C14         -1.0020    -1.4200    -1.7420 c          1 4HY       0.892600
     15 I1           4.1690     0.0000     1.1940 i          1 4HY      -0.181400
     16 I2           1.2650     5.1620     2.1980 i          1 4HY      -0.163900
     17 I3          -1.0600    -0.0000     4.2050 i          1 4HY      -0.181400
     18 O3          -0.6110    -2.3380    -1.0620 o          1 4HY      -0.833300
     19 O2           2.0580    -0.0000     3.5750 os         1 4HY      -0.199200
     20 O1           2.8510     5.2520     4.9510 oh         1 4HY      -0.517100
     21 O4          -1.6610    -1.6640    -2.8860 o          1 4HY      -0.833300
     22 HC31         1.9240    -0.0020    -0.9380 ha         1 4HY       0.154500
     23 HC41         1.2590     2.0650     2.1760 ha         1 4HY       0.175000
     24 H101         3.6540     3.1860     6.3460 ha         1 4HY       0.140000
     25 H111        -1.7770     0.0060     1.1930 ha         1 4HY       0.154500
     26 H121         3.2970     0.8270     5.7300 ha         1 4HY       0.147000
     27 H131        -0.1650     0.5120    -2.0600 hc         1 4HY       0.048700
     28 H132        -1.6980     0.5120    -1.1780 hc         1 4HY       0.048700
     29 HO11         2.1490     5.5400     5.5110 ho         1 4HY       0.415000
@<TRIPOS>BOND
     1     1     3 ar
     2     1    11 ar
     3     1    13 1
     4     2     4 ar
     5     2    12 ar
     6     2    19 1
     7     3     5 ar
     8     3    22 1
     9     4     6 ar
    10     4    23 1
    11     5     7 ar
    12     5    15 1
    13     6     8 ar
    14     6    16 1
    15     7     9 ar
    16     7    19 1
    17     8    10 ar
    18     8    20 1
    19     9    11 ar
    20     9    17 1
    21    10    12 ar
    22    10    24 1
    23    11    25 1
    24    12    26 1
    25    13    14 1
    26    13    27 1
    27    13    28 1
    28    14    18 1
    29    14    21 1
    30    20    29 1
@<TRIPOS>SUBSTRUCTURE
     1 4HY         1 TEMP              0 ****  ****    0 ROOT
