@<TRIPOS>MOLECULE
4HY
   29    30     1     0     0
SMALL
bcc


@<TRIPOS>ATOM
      1 C1          0.0630   -0.2250   -0.2710 ca        1 4HY     -0.008300
      2 C2          2.3200    1.5720    3.8500 ca        1 4HY      0.104100
      3 C3          1.4340    0.0550   -0.2970 ca        1 4HY     -0.092000
      4 C4          1.7590    2.7270    3.3020 ca        1 4HY     -0.122000
      5 C5          2.1480    0.2730    0.8820 ca        1 4HY      0.020900
      6 C6          1.9380    3.9570    3.9410 ca        1 4HY     -0.024100
      7 C7          1.4770    0.2030    2.1100 ca        1 4HY      0.094100
      8 C8          2.6790    4.0110    5.1290 ca        1 4HY      0.119100
      9 C9          0.1060   -0.1050    2.1590 ca        1 4HY      0.020900
     10 C10         3.2420    2.8420    5.6790 ca        1 4HY     -0.138000
     11 C11        -0.5870   -0.3240    0.9720 ca        1 4HY     -0.092000
     12 C12         3.0650    1.6240    5.0450 ca        1 4HY     -0.102000
     13 C13        -0.6980   -0.4030   -1.5260 c3        1 4HY     -0.190100
     14 C14        -1.6010   -1.6670   -1.5260 c         1 4HY      0.920600
     15 I1          4.1320    0.6620    0.7120 i         1 4HY     -0.156900
     16 I2          1.1010    5.5930    3.0930 i         1 4HY     -0.152900
     17 I3         -0.9240   -0.2720    3.8970 i         1 4HY     -0.156900
     18 O3         -2.5300   -1.7270   -0.6730 o         1 4HY     -0.827800
     19 O2          2.2070    0.3020    3.3000 os        1 4HY     -0.239200
     20 O1          2.9240    5.1620    5.8460 oh        1 4HY     -0.501100
     21 O4         -1.3690   -2.5360   -2.4070 o         1 4HY     -0.827800
     22 HC31        1.9500    0.0940   -1.2700 ha        1 4HY      0.181500
     23 HC41        1.1770    2.6590    2.3680 ha        1 4HY      0.169000
     24 H101        3.8170    2.9170    6.6130 ha        1 4HY      0.149000
     25 H111       -1.6600   -0.6180    0.9600 ha        1 4HY      0.181500
     26 H121        3.4930    0.6990    5.4560 ha        1 4HY      0.155000
     27 H131       -0.0060   -0.4590   -2.4040 hc        1 4HY      0.047700
     28 H132       -1.3780    0.4780   -1.6650 hc        1 4HY      0.047700
     29 HO11        2.4870    5.9000    5.3920 ho        1 4HY      0.422000
@<TRIPOS>BOND
     1    1    3 ar  
     2    1   11 ar  
     3    1   13 1   
     4    2    4 ar  
     5    2   12 ar  
     6    2   19 1   
     7    3    5 ar  
     8    3   22 1   
     9    4    6 ar  
    10    4   23 1   
    11    5    7 ar  
    12    5   15 1   
    13    6    8 ar  
    14    6   16 1   
    15    7    9 ar  
    16    7   19 1   
    17    8   10 ar  
    18    8   20 1   
    19    9   11 ar  
    20    9   17 1   
    21   10   12 ar  
    22   10   24 1   
    23   11   25 1   
    24   12   26 1   
    25   13   14 1   
    26   13   27 1   
    27   13   28 1   
    28   14   18 1   
    29   14   21 1   
    30   20   29 1   
@<TRIPOS>SUBSTRUCTURE
     1 4HY         1 TEMP              0 ****  ****    0 ROOT
