@<TRIPOS>MOLECULE
molecule
   41    43     1     0     0
SMALL
bcc


@<TRIPOS>ATOM
      1 C1           1.5070     0.0000     0.0000 c3         1 4HZ       0.175500
      2 N2           5.7020     1.5000     2.2210 nb         1 4HZ      -0.760000
      3 C3          -2.1390     0.0000    -1.1670 c3         1 4HZ       0.068000
      4 C4          -2.6490     0.0010    -2.6100 c3         1 4HZ       0.601900
      5 C5           3.2520     0.5070     1.6720 ca         1 4HZ       0.714200
      6 C6           3.7280     0.5120     2.9880 ca         1 4HZ      -0.194700
      7 C8           5.2250     1.4840     0.9830 ca         1 4HZ       0.816800
      8 C9           6.0560     2.0200    -0.1180 cc         1 4HZ      -0.213000
      9 C10          5.7230     2.0780    -1.4330 cd         1 4HZ      -0.036100
     10 C15          9.8100     3.7520    -0.5250 ca         1 4HZ       0.458200
     11 F3           2.9750     0.0230     3.9960 f          1 4HZ      -0.133900
     12 C7           4.9880     1.0280     3.2320 ca         1 4HZ       0.467200
     13 N3           4.0220     0.9960     0.7070 nb         1 4HZ      -0.813000
     14 N1           1.9950     0.0000     1.3810 nu         1 4HZ      -0.890900
     15 C2           0.0000     0.0000     0.0000 c          1 4HZ       0.657100
     16 N           -0.6740     0.0010    -1.1680 ns         1 4HZ      -0.585900
     17 F2          -2.1820    -1.1410    -3.2690 f          1 4HZ      -0.221300
     18 F1          -4.0480     0.0010    -2.6100 f          1 4HZ      -0.221300
     19 F           -2.1820     1.1440    -3.2690 f          1 4HZ      -0.221300
     20 O           -0.6070    -0.0000     1.0510 o          1 4HZ      -0.598100
     21 C            2.0180    -1.2490    -0.7210 c3         1 4HZ      -0.110100
     22 C12          7.4020     2.6000    -0.0020 ca         1 4HZ      -0.180100
     23 C13          8.2770     2.8290     1.0620 ca         1 4HZ      -0.027000
     24 C14          9.4990     3.4150     0.7850 ca         1 4HZ      -0.130900
     25 Cl          10.6320     3.7250     2.0630 cl         1 4HZ      -0.099400
     26 N5           8.9700     3.5240    -1.5120 nb         1 4HZ      -0.702000
     27 C11          7.7840     2.9690    -1.3040 ca         1 4HZ       0.456800
     28 N4           6.7430     2.6370    -2.1410 na         1 4HZ      -0.271100
     29 H1           1.8680     0.8850    -0.5110 h1         1 4HZ       0.093700
     30 H2          -2.5000     0.8840    -0.6560 h1         1 4HZ       0.091200
     31 H3          -2.5000    -0.8850    -0.6570 h1         1 4HZ       0.091200
     32 H4           4.7870     1.7350    -1.8540 h4         1 4HZ       0.186000
     33 H5          10.7670     4.2100    -0.7400 h4         1 4HZ       0.037100
     34 H6           5.3870     1.0470     4.2390 h4         1 4HZ       0.043100
     35 H7           1.4200    -0.3640     2.1150 hn         1 4HZ       0.480800
     36 H8          -0.1740     0.0290    -2.0340 hn         1 4HZ       0.329500
     37 H9           2.6810    -1.7990    -0.0650 hc         1 4HZ       0.051367
     38 H10          2.5550    -0.9560    -1.6150 hc         1 4HZ       0.051367
     39 H11          1.1780    -1.8770    -0.9940 hc         1 4HZ       0.051367
     40 H12          8.0060     2.5550     2.0740 ha         1 4HZ       0.176000
     41 H13          6.7360     2.7880    -3.1310 hn         1 4HZ       0.310700
@<TRIPOS>BOND
     1    18     4 1   
     2     4    17 1   
     3     4    19 1   
     4     4     3 1   
     5    10    26 ar  
     6    10    24 ar  
     7    26    27 ar  
     8    25    24 1   
     9     3    16 1   
    10    24    23 ar  
    11    27    28 1   
    12    27    22 ar  
    13    28     9 1   
    14    23    22 ar  
    15    22     8 1   
    16     9     8 2   
    17    16    15 1   
    18    20    15 2   
    19     8     7 1   
    20    15     1 1   
    21     7    13 ar  
    22     7     2 ar  
    23    13     5 ar  
    24     2    12 ar  
    25     1    14 1   
    26     1    21 1   
    27     5    14 1   
    28     5     6 ar  
    29    12     6 ar  
    30     6    11 1   
    31     1    29 1   
    32     3    30 1   
    33     3    31 1   
    34     9    32 1   
    35    10    33 1   
    36    12    34 1   
    37    14    35 1   
    38    16    36 1   
    39    21    37 1   
    40    21    38 1   
    41    21    39 1   
    42    23    40 1   
    43    28    41 1   
@<TRIPOS>SUBSTRUCTURE
     1 4HZ         1 TEMP              0 ****  ****    0 ROOT
