@<TRIPOS>MOLECULE
4HZ
   41    43     1     0     0
SMALL
bcc


@<TRIPOS>ATOM
      1 C1           1.5070     0.0000     0.0000 c3         1 4HZ       0.065500
      2 N2           5.7020     1.5000     2.2210 nb         1 4HZ      -0.666000
      3 C3          -2.1390     0.0000    -1.1670 c3         1 4HZ      -0.008000
      4 C4          -2.6490     0.0010    -2.6100 c3         1 4HZ       0.557900
      5 C5           3.2520     0.5070     1.6720 ca         1 4HZ       0.534200
      6 C6           3.7280     0.5120     2.9880 ca         1 4HZ      -0.228700
      7 C8           5.2250     1.4840     0.9830 ca         1 4HZ       0.754800
      8 C9           6.0560     2.0200    -0.1180 cc         1 4HZ      -0.222000
      9 C10          5.7230     2.0780    -1.4330 cd         1 4HZ      -0.218100
     10 C15          9.8100     3.7520    -0.5250 ca         1 4HZ       0.419200
     11 F3           2.9750     0.0230     3.9960 f          1 4HZ      -0.114900
     12 C7           4.9880     1.0280     3.2320 ca         1 4HZ       0.469200
     13 N3           4.0220     0.9960     0.7070 nb         1 4HZ      -0.706000
     14 N1           1.9950     0.0000     1.3810 nu         1 4HZ      -0.470900
     15 C2           0.0000     0.0000     0.0000 c          1 4HZ       0.574100
     16 N           -0.6740     0.0010    -1.1680 ns         1 4HZ      -0.186900
     17 F2          -2.1820    -1.1410    -3.2690 f          1 4HZ      -0.201967
     18 F1          -4.0480     0.0010    -2.6100 f          1 4HZ      -0.201967
     19 F           -2.1820     1.1440    -3.2690 f          1 4HZ      -0.201967
     20 O           -0.6070    -0.0000     1.0510 o          1 4HZ      -0.635100
     21 C            2.0180    -1.2490    -0.7210 c3         1 4HZ      -0.014100
     22 C12          7.4020     2.6000    -0.0020 ca         1 4HZ      -0.171100
     23 C13          8.2770     2.8290     1.0620 ca         1 4HZ      -0.004000
     24 C14          9.4990     3.4150     0.7850 ca         1 4HZ      -0.188900
     25 Cl          10.6320     3.7250     2.0630 cl         1 4HZ      -0.013400
     26 N5           8.9700     3.5240    -1.5120 nb         1 4HZ      -0.566000
     27 C11          7.7840     2.9690    -1.3040 ca         1 4HZ       0.215800
     28 N4           6.7430     2.6370    -2.1410 na         1 4HZ       0.275900
     29 H1           1.8680     0.8850    -0.5110 h1         1 4HZ       0.065700
     30 H2          -2.5000     0.8840    -0.6560 h1         1 4HZ       0.063200
     31 H3          -2.5000    -0.8850    -0.6570 h1         1 4HZ       0.063200
     32 H4           4.7870     1.7350    -1.8540 h4         1 4HZ       0.152000
     33 H5          10.7670     4.2100    -0.7400 h4         1 4HZ      -0.012900
     34 H6           5.3870     1.0470     4.2390 h4         1 4HZ      -0.005900
     35 H7           1.4200    -0.3640     2.1150 hn         1 4HZ       0.329800
     36 H8          -0.1740     0.0290    -2.0340 hn         1 4HZ       0.189500
     37 H9           2.6810    -1.7990    -0.0650 hc         1 4HZ       0.016700
     38 H10          2.5550    -0.9560    -1.6150 hc         1 4HZ       0.016700
     39 H11          1.1780    -1.8770    -0.9940 hc         1 4HZ       0.016700
     40 H12          8.0060     2.5550     2.0740 ha         1 4HZ       0.141000
     41 H13          6.7360     2.7880    -3.1310 hn         1 4HZ       0.119700
@<TRIPOS>BOND
     1     1    14 1   
     2     1    15 1   
     3     1    21 1   
     4     1    29 1   
     5     2     7 ar  
     6     2    12 ar  
     7     3     4 1   
     8     3    16 1   
     9     3    30 1   
    10     3    31 1   
    11     4    17 1   
    12     4    18 1   
    13     4    19 1   
    14     5     6 ar  
    15     5    13 ar  
    16     5    14 1   
    17     6    11 1   
    18     6    12 ar  
    19     7     8 1   
    20     7    13 ar  
    21     8     9 2   
    22     8    22 1   
    23     9    28 1   
    24     9    32 1   
    25    10    24 ar  
    26    10    26 ar  
    27    10    33 1   
    28    12    34 1   
    29    14    35 1   
    30    15    16 1   
    31    15    20 2   
    32    16    36 1   
    33    21    37 1   
    34    21    38 1   
    35    21    39 1   
    36    22    23 ar  
    37    22    27 ar  
    38    23    24 ar  
    39    23    40 1   
    40    24    25 1   
    41    26    27 ar  
    42    27    28 1   
    43    28    41 1   
@<TRIPOS>SUBSTRUCTURE
     1 4HZ         1 TEMP              0 ****  ****    0 ROOT
