@<TRIPOS>MOLECULE
4I4
   56    58     1     0     0
SMALL
bcc


@<TRIPOS>ATOM
      1 C14          0.0000     0.0000     0.0000 c3         1 4I4      -0.100400
      2 C15          1.5300     0.0000     0.0000 c3         1 4I4      -0.040400
      3 C16          2.0390     0.0000     1.4430 c3         1 4I4       0.006900
      4 C17          3.5470    -0.0010     1.4430 ca         1 4I4      -0.091300
      5 C22          4.2390     1.1970     1.4430 ca         1 4I4      -0.099000
      6 C18          4.2370    -1.1980     1.4490 ca         1 4I4      -0.099000
      7 C21          5.6210     1.1960     1.4440 ca         1 4I4      -0.092500
      8 C19          5.6200    -1.1980     1.4500 ca         1 4I4      -0.092500
      9 C20          6.3120    -0.0010     1.4440 ca         1 4I4      -0.093000
     10 C12         -0.5020     0.0000    -1.4210 c          1 4I4       0.621100
     11 O13          0.2870     0.0000    -2.3430 o          1 4I4      -0.589100
     12 O9          -1.7340     2.0250    -3.9040 o          1 4I4      -0.568100
     13 C8          -1.6540     0.8510    -3.9560 c          1 4I4       0.659100
     14 C10         -2.4520     0.0010    -3.0030 c3         1 4I4      -0.047300
     15 C25         -3.8580     0.6120    -2.7810 c3         1 4I4      -0.023400
     16 C24         -4.2380     0.0270    -1.3960 c3         1 4I4       0.178500
     17 N26         -5.1930     0.9010    -0.7090 n2         1 4I4      -0.326200
     18 N27         -5.6390     0.5840     0.2730 n1         1 4I4       0.828000
     19 N28         -6.0730     0.2500     1.2540 n2         1 4I4      -0.414400
     20 C23         -2.8880     0.0010    -0.6500 c3         1 4I4       0.030000
     21 N11         -1.8280     0.0010    -1.6670 n          1 4I4      -0.176800
     22 N7          -0.8800     0.2150    -5.0380 n          1 4I4      -0.231800
     23 C6          -0.1390     0.8370    -5.9420 c3         1 4I4       0.046000
     24 C5          -0.1240    -0.1190    -7.1970 c3         1 4I4      -0.040400
     25 C4          -0.9900    -1.3510    -6.7880 c3         1 4I4      -0.026400
     26 C3          -0.7820    -1.3560    -5.3380 c3         1 4I4      -0.003600
     27 C1           0.4740    -1.9220    -4.7270 c2         1 4I4       0.544600
     28 N2           1.4670    -1.1930    -4.5600 n2         1 4I4      -0.687100
     29 OXT          0.5220    -3.2690    -4.3460 oh         1 4I4      -0.597600
     30 H141        -0.3610     0.5880     0.8350 hc         1 4I4       0.027200
     31 H142        -0.3610    -1.0170     0.0920 hc         1 4I4       0.027200
     32 H151         1.8910     0.5880    -0.8350 hc         1 4I4       0.052200
     33 H152         1.8910    -1.0170    -0.0920 hc         1 4I4       0.052200
     34 H161         1.3650    -0.5770     2.0640 hc         1 4I4       0.021700
     35 H162         2.0860     1.0180     1.8100 hc         1 4I4       0.021700
     36 H22          3.6980     2.1350     1.4430 ha         1 4I4       0.104000
     37 H18          3.6950    -2.1360     1.4540 ha         1 4I4       0.104000
     38 H21          6.1630     2.1340     1.4440 ha         1 4I4       0.106500
     39 H19          6.1610    -2.1360     1.4550 ha         1 4I4       0.106500
     40 H20          7.3950    -0.0010     1.4450 ha         1 4I4       0.107000
     41 H10         -2.5390    -1.0130    -3.3750 h1         1 4I4       0.054700
     42 H251        -4.5540     0.2250    -3.5160 hc         1 4I4       0.068700
     43 H252        -3.8080     1.6930    -2.8350 hc         1 4I4       0.068700
     44 H24         -4.6340    -0.9760    -1.5020 h1         1 4I4       0.060700
     45 H231        -2.8690     0.7650     0.1180 h1         1 4I4       0.027200
     46 H232        -2.7170    -0.9780    -0.2190 h1         1 4I4       0.027200
     47 H28         -5.8070    -0.6320     1.6450 hn         1 4I4       0.493400
     48 H61C        -0.5860     1.7890    -6.2020 h1         1 4I4       0.024700
     49 H62C         0.8680     0.9780    -5.5670 h1         1 4I4       0.024700
     50 H3          -1.6330    -1.8430    -4.8780 h1         1 4I4       0.020700
     51 H51C        -0.5640     0.3800    -8.0520 hc         1 4I4       0.030700
     52 H52C         0.8900    -0.4310    -7.4170 hc         1 4I4       0.030700
     53 H41C        -2.0340    -1.1900    -7.0300 hc         1 4I4       0.037700
     54 H42C        -0.6100    -2.2600    -7.2380 hc         1 4I4       0.037700
     55 H21N         1.4330    -0.2300    -4.8320 hn         1 4I4       0.367400
     56 HXT          1.4070    -3.5850    -4.4200 ho         1 4I4       0.423000
@<TRIPOS>BOND
     1     1     2 1   
     2     1    10 1   
     3     1    30 1   
     4     1    31 1   
     5     2     3 1   
     6     2    32 1   
     7     2    33 1   
     8     3     4 1   
     9     3    34 1   
    10     3    35 1   
    11     4     5 ar  
    12     4     6 ar  
    13     5     7 ar  
    14     5    36 1   
    15     6     8 ar  
    16     6    37 1   
    17     7     9 ar  
    18     7    38 1   
    19     8     9 ar  
    20     8    39 1   
    21     9    40 1   
    22    10    11 2   
    23    10    21 1   
    24    12    13 2   
    25    13    14 1   
    26    13    22 1   
    27    14    15 1   
    28    14    21 1   
    29    14    41 1   
    30    15    16 1   
    31    15    42 1   
    32    15    43 1   
    33    16    17 1   
    34    16    20 1   
    35    16    44 1   
    36    17    18 2   
    37    18    19 2   
    38    19    47 1   
    39    20    21 1   
    40    20    45 1   
    41    20    46 1   
    42    22    23 1   
    43    22    26 1   
    44    23    24 1   
    45    23    48 1   
    46    23    49 1   
    47    24    25 1   
    48    24    51 1   
    49    24    52 1   
    50    25    26 1   
    51    25    53 1   
    52    25    54 1   
    53    26    27 1   
    54    26    50 1   
    55    27    28 2   
    56    27    29 1   
    57    28    55 1   
    58    29    56 1   
@<TRIPOS>SUBSTRUCTURE
     1 4I4         1 TEMP              0 ****  ****    0 ROOT
