@<TRIPOS>MOLECULE
molecule
   56    58     1     0     0
SMALL
bcc


@<TRIPOS>ATOM
      1 C14          0.0000     0.0000     0.0000 c3         1 4I4      -0.159400
      2 C15          1.5300     0.0000     0.0000 c3         1 4I4      -0.069400
      3 C16          2.0390     0.0000     1.4430 c3         1 4I4      -0.061100
      4 C17          3.5470    -0.0010     1.4430 ca         1 4I4      -0.083300
      5 C22          4.2390     1.1970     1.4430 ca         1 4I4      -0.124500
      6 C18          4.2370    -1.1980     1.4490 ca         1 4I4      -0.124500
      7 C21          5.6210     1.1960     1.4440 ca         1 4I4      -0.121500
      8 C19          5.6200    -1.1980     1.4500 ca         1 4I4      -0.121500
      9 C20          6.3120    -0.0010     1.4440 ca         1 4I4      -0.121000
     10 C12         -0.5020     0.0000    -1.4210 c          1 4I4       0.663100
     11 O13          0.2870     0.0000    -2.3430 o          1 4I4      -0.511100
     12 O9          -0.8680     1.6320    -3.5360 o          1 4I4      -0.493100
     13 C8          -1.6540     0.8510    -3.9560 c          1 4I4       0.706100
     14 C10         -2.4520     0.0010    -3.0030 c3         1 4I4       0.023700
     15 C25         -3.8580     0.6120    -2.7810 c3         1 4I4      -0.138400
     16 C24         -4.2380     0.0270    -1.3960 c3         1 4I4       0.267500
     17 N26         -5.1930     0.9010    -0.7090 n2         1 4I4      -0.241200
     18 N27         -5.6390     0.5840     0.2730 n1         1 4I4       0.422000
     19 N28         -6.0940     0.2830     1.2550 n2         1 4I4      -0.433400
     20 C23         -2.8880     0.0010    -0.6500 c3         1 4I4      -0.084000
     21 N11         -1.8280     0.0010    -1.6670 n          1 4I4      -0.479800
     22 N7          -1.9370     0.8030    -5.3800 n          1 4I4      -0.543800
     23 C6          -1.1850     1.6400    -6.5300 c3         1 4I4       0.146000
     24 C5          -1.1210     0.8000    -7.6130 c3         1 4I4      -0.108400
     25 C4          -2.3290    -0.1800    -7.4470 c3         1 4I4      -0.080400
     26 C3          -2.8640     0.0590    -5.9740 c3         1 4I4       0.102400
     27 C1          -3.0170    -1.2900    -5.2380 c2         1 4I4       0.560600
     28 N2          -2.0150    -2.0160    -5.0480 n2         1 4I4      -0.783100
     29 OXT         -4.2760    -1.7010    -4.7830 oh         1 4I4      -0.714600
     30 H141        -0.3610     0.9840     0.2750 hc         1 4I4       0.059700
     31 H142        -0.3610    -0.7300     0.7150 hc         1 4I4       0.059700
     32 H151         1.8910     0.9840    -0.2750 hc         1 4I4       0.074200
     33 H152         1.8910    -0.7300    -0.7150 hc         1 4I4       0.074200
     34 H161         2.1040    -1.0200     1.8030 hc         1 4I4       0.052200
     35 H162         1.3550     0.5610     2.0680 hc         1 4I4       0.052200
     36 H22          3.6980     2.1350     1.4430 ha         1 4I4       0.128500
     37 H18          3.6950    -2.1360     1.4540 ha         1 4I4       0.128500
     38 H21          6.1630     2.1340     1.4440 ha         1 4I4       0.135000
     39 H19          6.1620    -2.1360     1.4550 ha         1 4I4       0.135000
     40 H20          7.3950    -0.0020     1.4450 ha         1 4I4       0.136000
     41 H10         -2.5390    -1.0130    -3.3750 h1         1 4I4       0.105700
     42 H251        -4.5850    -0.1730    -2.6110 hc         1 4I4       0.130700
     43 H252        -4.1420     1.2170    -3.6350 hc         1 4I4       0.130700
     44 H24         -4.6340    -0.9760    -1.5020 h1         1 4I4       0.104700
     45 H231        -2.4090    -0.9630    -0.7750 h1         1 4I4       0.142200
     46 H232        -3.0350     0.2210     0.4000 h1         1 4I4       0.142200
     47 H28         -5.8490    -0.5920     1.6740 hn         1 4I4       0.610400
     48 H61C        -1.7550     2.5270    -6.7790 h1         1 4I4       0.067200
     49 H62C        -0.1870     1.9070    -6.2050 h1         1 4I4       0.067200
     50 H3          -3.8090     0.5890    -6.0010 h1         1 4I4       0.038700
     51 H51C        -1.2210     1.3660    -8.5310 hc         1 4I4       0.072700
     52 H52C        -0.1880     0.2490    -7.6040 hc         1 4I4       0.072700
     53 H41C        -1.9970    -1.2050    -7.5630 hc         1 4I4       0.064200
     54 H42C        -3.1020     0.0550    -8.1690 hc         1 4I4       0.064200
     55 H21N        -2.1140    -2.8910    -4.5700 hn         1 4I4       0.416400
     56 HXT         -4.6140    -2.3710    -5.3540 ho         1 4I4       0.442000
@<TRIPOS>BOND
     1    12    13 2   
     2    13    22 1   
     3    13    14 1   
     4    22    23 1   
     5    22    26 1   
     6    23    24 1   
     7    24    25 1   
     8    25    26 1   
     9    26    27 1   
    10    27    28 2   
    11    27    29 1   
    12    14    15 1   
    13    14    21 1   
    14    15    16 1   
    15    16    17 1   
    16    16    20 1   
    17    17    18 2   
    18    18    19 2   
    19    20    21 1   
    20    21    10 1   
    21    10    11 2   
    22    10     1 1   
    23     1     2 1   
    24     2     3 1   
    25     3     4 1   
    26     4     5 ar  
    27     4     6 ar  
    28     5     7 ar  
    29     7     9 ar  
    30     9     8 ar  
    31     8     6 ar  
    32    14    41 1   
    33    23    48 1   
    34    23    49 1   
    35    26    50 1   
    36    24    51 1   
    37    24    52 1   
    38    25    53 1   
    39    25    54 1   
    40    28    55 1   
    41    15    42 1   
    42    15    43 1   
    43    16    44 1   
    44    20    45 1   
    45    20    46 1   
    46    19    47 1   
    47     1    30 1   
    48     1    31 1   
    49     2    32 1   
    50     2    33 1   
    51     3    34 1   
    52     3    35 1   
    53     5    36 1   
    54     6    37 1   
    55     7    38 1   
    56     9    40 1   
    57     8    39 1   
    58    29    56 1   
@<TRIPOS>SUBSTRUCTURE
     1 4I4         1 TEMP              0 ****  ****    0 ROOT
