@<TRIPOS>MOLECULE
molecule
   34    36     1     0     0
SMALL
bcc


@<TRIPOS>ATOM
      1 C1           0.0000     0.0000     0.0000 ca         1 4I5       0.012400
      2 N1           0.6100     2.4670     5.7990 nz         1 4I5      -0.686400
      3 O1          -0.1510     1.4910     7.6400 o          1 4I5      -0.428100
      4 Cl1         -0.8640     0.0020    -1.5050 cl         1 4I5      -0.068400
      5 C2           1.3890     0.0000     0.0000 ca         1 4I5      -0.070000
      6 N2           1.8180    -0.0010     3.7120 na         1 4I5      -0.186400
      7 C3           2.0910     0.0000     1.1850 ca         1 4I5      -0.137000
      8 C4           1.4090    -0.0010     2.3960 ca         1 4I5      -0.025200
      9 C5           0.0030    -0.0020     2.3990 ca         1 4I5      -0.112800
     10 C6          -0.6960     0.0060     1.1890 ca         1 4I5      -0.066000
     11 C7          -0.3970    -0.0060     3.8060 cc         1 4I5      -0.107400
     12 C8           0.7260    -0.0020     4.5410 cd         1 4I5      -0.166300
     13 C9           0.7760     0.0120     6.0510 c3         1 4I5      -0.065500
     14 C10         -0.1910    -1.0370     6.6030 c3         1 4I5      -0.060400
     15 C11         -1.5720    -0.4170     6.7930 c3         1 4I5      -0.102400
     16 C12         -1.8380     0.6340     5.7180 c3         1 4I5      -0.076400
     17 C13         -1.8070    -0.0270     4.3380 c3         1 4I5      -0.023200
     18 C14          0.3780     1.3750     6.5540 c          1 4I5       0.517100
     19 HN1          0.2530     3.2770     6.2650 hn         1 4I5       0.477467
     20 HN1A         0.1550     2.3620     4.9140 hn         1 4I5       0.477467
     21 H2           1.9250     0.0010    -0.9410 ha         1 4I5       0.165000
     22 HN2          2.7710    -0.0020     4.0170 hn         1 4I5       0.303700
     23 H3           3.1750    -0.0000     1.1730 ha         1 4I5       0.147000
     24 H6          -1.7720     0.1310     1.1860 ha         1 4I5       0.155000
     25 H9           1.7830    -0.2200     6.3790 hc         1 4I5       0.107700
     26 H10         -0.2610    -1.8630     5.9050 hc         1 4I5       0.085700
     27 H10A         0.1760    -1.3960     7.5570 hc         1 4I5       0.085700
     28 H11         -1.6210     0.0510     7.7690 hc         1 4I5       0.082200
     29 H11A        -2.3240    -1.1930     6.7260 hc         1 4I5       0.082200
     30 H12         -2.8130     1.0770     5.8820 hc         1 4I5       0.023200
     31 H12A        -1.0750     1.4010     5.7680 hc         1 4I5       0.023200
     32 H13         -2.4550     0.5180     3.6630 hc         1 4I5       0.080200
     33 H13A        -2.1450    -1.0520     4.4230 hc         1 4I5       0.080200
     34 H131         1.5960     2.5730     5.6600 hn         1 4I5       0.477467
@<TRIPOS>BOND
     1     1     4 1   
     2     1     5 ar  
     3     1    10 ar  
     4     2    18 1   
     5     3    18 2   
     6     5     7 ar  
     7     6     8 1   
     8     6    12 1   
     9     7     8 ar  
    10     8     9 ar  
    11     9    10 ar  
    12     9    11 1   
    13    11    12 2   
    14    11    17 1   
    15    12    13 1   
    16    13    14 1   
    17    13    18 1   
    18    14    15 1   
    19    15    16 1   
    20    16    17 1   
    21     2    19 1   
    22     2    20 1   
    23     5    21 1   
    24     6    22 1   
    25     7    23 1   
    26    10    24 1   
    27    13    25 1   
    28    14    26 1   
    29    14    27 1   
    30    15    28 1   
    31    15    29 1   
    32    16    30 1   
    33    16    31 1   
    34    17    32 1   
    35    17    33 1   
    36    34     2 1   
@<TRIPOS>SUBSTRUCTURE
     1 4I5         1 TEMP              0 ****  ****    0 ROOT
