@<TRIPOS>MOLECULE
4I8
   21    22     1     0     0
SMALL
bcc


@<TRIPOS>ATOM
      1 CAA          0.0000     0.0000     0.0000 c3         1 4I8       0.289700
      2 CAD          4.2620    -0.0090     0.6220 ca         1 4I8      -0.036000
      3 CAE          5.5900    -0.0120     0.9860 ca         1 4I8      -0.102000
      4 CAF          3.6200    -0.0530     2.9560 ca         1 4I8       0.018000
      5 CAJ          2.0630     0.0000     1.2010 c          1 4I8       0.702700
      6 CAK          3.2670    -0.0290     1.6040 ca         1 4I8      -0.131600
      7 CAL          6.9120    -0.0830     4.3140 c          1 4I8       0.740600
      8 CAM          5.9430    -0.0410     2.3290 ca         1 4I8      -0.150400
      9 CAN          4.9540    -0.0670     3.3160 ca         1 4I8       0.040100
     10 NAG          7.1650    -0.0520     2.9910 ns         1 4I8      -0.013100
     11 OAB          1.2640     0.7490     1.7260 o          1 4I8      -0.608000
     12 OAC          7.7560    -0.0980     5.1890 o          1 4I8      -0.646500
     13 OAH          1.4520     0.0000     0.0000 os         1 4I8      -0.447900
     14 OAI          5.5850    -0.0890     4.5160 os         1 4I8      -0.238200
     15 H1          -0.3610    -0.8840     0.5110 h1         1 4I8       0.001700
     16 H2          -0.3610    -0.0000    -1.0210 h1         1 4I8       0.001700
     17 H3          -0.3610     0.8850     0.5100 h1         1 4I8       0.001700
     18 H5           6.3600     0.0040     0.2240 ha         1 4I8       0.114000
     19 H6           2.8510    -0.0680     3.7180 ha         1 4I8       0.132000
     20 H7           8.0660    -0.1320     2.5620 hn         1 4I8       0.203500
     21 H4           3.9880     0.0090    -0.4260 ha         1 4I8       0.128000
@<TRIPOS>BOND
     1     1    13 1   
     2     1    15 1   
     3     1    16 1   
     4     1    17 1   
     5     2     3 ar  
     6     2     6 ar  
     7     2    21 1   
     8     3     8 ar  
     9     3    18 1   
    10     4     6 ar  
    11     4     9 ar  
    12     4    19 1   
    13     5     6 1   
    14     5    11 2   
    15     5    13 1   
    16     7    10 1   
    17     7    12 2   
    18     7    14 1   
    19     8     9 ar  
    20     8    10 1   
    21     9    14 1   
    22    10    20 1   
@<TRIPOS>SUBSTRUCTURE
     1 4I8         1 TEMP              0 ****  ****    0 ROOT
