@<TRIPOS>MOLECULE
molecule
   21    22     1     0     0
SMALL
bcc


@<TRIPOS>ATOM
      1 CAA          0.0000     0.0000     0.0000 c3         1 4I8       0.170700
      2 CAD          4.2620    -0.0090     0.6220 ca         1 4I8      -0.057000
      3 CAE          5.5900    -0.0120     0.9860 ca         1 4I8      -0.145000
      4 CAF          3.6200    -0.0530     2.9560 ca         1 4I8      -0.016000
      5 CAJ          2.0630     0.0000     1.2010 c          1 4I8       0.652700
      6 CAK          3.2670    -0.0290     1.6040 ca         1 4I8      -0.124600
      7 CAL          6.9120    -0.0830     4.3140 c          1 4I8       0.825600
      8 CAM          5.9430    -0.0410     2.3290 ca         1 4I8       0.012600
      9 CAN          4.9540    -0.0670     3.3160 ca         1 4I8       0.036100
     10 NAG          7.1650    -0.0520     2.9910 ns         1 4I8      -0.466100
     11 OAB          1.2640     0.7490     1.7260 o          1 4I8      -0.573000
     12 OAC          7.7560    -0.0980     5.1890 o          1 4I8      -0.586500
     13 OAH          1.4520     0.0000     0.0000 os         1 4I8      -0.472900
     14 OAI          5.5850    -0.0890     4.5160 os         1 4I8      -0.258200
     15 H1          -0.3610    -0.8840     0.5110 h1         1 4I8       0.048367
     16 H2          -0.3610    -0.0000    -1.0210 h1         1 4I8       0.048367
     17 H3          -0.3610     0.8850     0.5100 h1         1 4I8       0.048367
     18 H5           6.3600     0.0040     0.2240 ha         1 4I8       0.147000
     19 H6           2.8510    -0.0680     3.7180 ha         1 4I8       0.172000
     20 H7           8.0660    -0.1320     2.5620 hn         1 4I8       0.372500
     21 H4           3.9880     0.0090    -0.4260 ha         1 4I8       0.166000
@<TRIPOS>BOND
     1     1    13 1
     2    13     5 1
     3    11     5 2
     4     5     6 1
     5     6     2 ar
     6     6     4 ar
     7     2     3 ar
     8     4     9 ar
     9     3     8 ar
    10     9     8 ar
    11     9    14 1
    12     8    10 1
    13    14     7 1
    14    10     7 1
    15     7    12 2
    16     1    15 1
    17     1    16 1
    18     1    17 1
    19     2    21 1
    20     3    18 1
    21     4    19 1
    22    10    20 1
@<TRIPOS>SUBSTRUCTURE
     1 4I8         1 TEMP              0 ****  ****    0 ROOT
