@<TRIPOS>MOLECULE
molecule
   23    23     1     0     0
SMALL
bcc


@<TRIPOS>ATOM
      1 C10          0.0000     0.0000     0.0000 c          1 4IA       0.882200
      2 C01          6.2630    -1.2490    -0.7210 c3         1 4IA      -0.082600
      3 C03          6.2640     1.2500    -0.7210 c3         1 4IA      -0.082600
      4 C04          4.2460     0.0000     0.0000 ca         1 4IA      -0.111300
      5 C05          3.5580     0.0000     1.2000 ca         1 4IA      -0.157500
      6 C06          2.1780     0.0000     1.2070 ca         1 4IA      -0.101000
      7 C07          1.4770     0.0010    -0.0010 ca         1 4IA      -0.104600
      8 C08          2.1780     0.0010    -1.2080 ca         1 4IA      -0.101000
      9 C09          3.5580     0.0060    -1.2010 ca         1 4IA      -0.157500
     10 O11         -0.6070     0.0050     1.0520 o          1 4IA      -0.839800
     11 O12         -0.6740     0.0000    -1.1660 o          1 4IA      -0.839800
     12 H011         5.7530    -2.1230    -0.3330 hc         1 4IA       0.028200
     13 H012         7.3290    -1.3520    -0.5570 hc         1 4IA       0.028200
     14 H013         6.0680    -1.1590    -1.7820 hc         1 4IA       0.028200
     15 H021         6.1150     0.0010     1.0220 hc         1 4IA       0.040700
     16 H031         6.0730     1.1560    -1.7840 hc         1 4IA       0.028200
     17 H032         5.7390     2.1160    -0.3350 hc         1 4IA       0.028200
     18 H033         7.3270     1.3670    -0.5540 hc         1 4IA       0.028200
     19 H051         4.1030    -0.0000     2.1360 ha         1 4IA       0.104000
     20 H061         1.6400     0.0000     2.1470 ha         1 4IA       0.148000
     21 H081         1.6400     0.0060    -2.1480 ha         1 4IA       0.148000
     22 H091         4.1030     0.0060    -2.1360 ha         1 4IA       0.104000
     23 C02          5.7540     0.0010     0.0000 c3         1 4IA      -0.022400
@<TRIPOS>BOND
     1    10     1 1   
     2     8     9 ar  
     3     8     7 ar  
     4     1    11 1   
     5     1     7 1   
     6     9     4 ar  
     7     7     6 ar  
     8     3    23 1   
     9     4    23 1   
    10     4     5 ar  
    11     6     5 ar  
    12    23     2 1   
    13     2    12 1   
    14     2    13 1   
    15     2    14 1   
    16    23    15 1   
    17     3    16 1   
    18     3    17 1   
    19     3    18 1   
    20     5    19 1   
    21     6    20 1   
    22     8    21 1   
    23     9    22 1   
@<TRIPOS>SUBSTRUCTURE
     1 4IA         1 TEMP              0 ****  ****    0 ROOT
