@<TRIPOS>MOLECULE
molecule
   33    34     1     0     0
SMALL
bcc


@<TRIPOS>ATOM
      1 C1           0.0000     0.0000     0.0000 ca         1 4IB      -0.069750
      2 C2           1.3900     0.0010     2.3940 ca         1 4IB       0.025150
      3 C3           1.3820     0.0000     0.0000 ca         1 4IB      -0.091300
      4 C4          -0.6920     0.0010     1.1970 ca         1 4IB       0.025150
      5 C5           0.0030     0.0020     2.3980 ca         1 4IB       0.159100
      6 C6           2.0770     0.0000     1.1950 ca         1 4IB      -0.069750
      7 C7           2.1340    -0.0010    -1.3070 c3         1 4IB       0.031600
      8 C8           1.7840     1.2620    -2.0970 c3         1 4IB      -0.085100
      9 C9           3.6380    -0.0290    -1.0300 c3         1 4IB      -0.085100
     10 C10          1.7470    -1.2180    -2.1080 ca         1 4IB      -0.091300
     11 C11          1.0390    -3.4520    -3.5770 ca         1 4IB       0.159100
     12 C12          1.2810    -1.0740    -3.4010 ca         1 4IB      -0.069750
     13 C13          1.8660    -2.4770    -1.5490 ca         1 4IB      -0.069750
     14 C14          1.5120    -3.5950    -2.2810 ca         1 4IB       0.025150
     15 C15          0.9260    -2.1880    -4.1370 ca         1 4IB       0.025150
     16 O1           0.6920    -4.5510    -4.2990 oh         1 4IB      -0.504600
     17 O2          -0.6740     0.0010     3.5770 oh         1 4IB      -0.504600
     18 I1           1.6840    -5.5030    -1.4310 i          1 4IB      -0.140150
     19 I2           0.2120    -1.9680    -6.0940 i          1 4IB      -0.140150
     20 I3           2.4450     0.0020     4.2060 i          1 4IB      -0.140150
     21 I4          -2.7870     0.0020     1.1970 i          1 4IB      -0.140150
     22 H2          -0.5420    -0.0000    -0.9380 ha         1 4IB       0.153750
     23 H1           3.1610    -0.0000     1.1910 ha         1 4IB       0.153750
     24 H5           0.7360     1.2400    -2.3680 hc         1 4IB       0.044867
     25 H4           1.9810     2.1350    -1.4870 hc         1 4IB       0.044867
     26 H3           2.3880     1.3050    -2.9950 hc         1 4IB       0.044867
     27 H7           3.9230     0.8670    -0.4910 hc         1 4IB       0.044867
     28 H8           3.8790    -0.9010    -0.4350 hc         1 4IB       0.044867
     29 H6           4.1770    -0.0720    -1.9690 hc         1 4IB       0.044867
     30 H11          1.1930    -0.0860    -3.8370 ha         1 4IB       0.153750
     31 H9           2.2350    -2.5880    -0.5370 ha         1 4IB       0.153750
     32 H10          1.4420    -4.8650    -4.7760 ho         1 4IB       0.433000
     33 H12         -0.8320     0.8900     3.8490 ho         1 4IB       0.433000
@<TRIPOS>BOND
     1    16    11 1
     2    18    14 1
     3    11    14 ar
     4    11    15 ar
     5    14    13 ar
     6    19    15 1
     7    15    12 ar
     8    13    10 ar
     9    12    10 ar
    10    10     7 1
    11     7     8 1
    12     7     9 1
    13     7     3 1
    14    21     4 1
    15     1     3 ar
    16     1     4 ar
    17     3     6 ar
    18     4     5 ar
    19     6     2 ar
    20     5     2 ar
    21     5    17 1
    22     2    20 1
    23     1    22 1
    24     6    23 1
    25     8    24 1
    26     8    25 1
    27     8    26 1
    28     9    27 1
    29     9    28 1
    30     9    29 1
    31    12    30 1
    32    13    31 1
    33    16    32 1
    34    17    33 1
@<TRIPOS>SUBSTRUCTURE
     1 4IB         1 TEMP              0 ****  ****    0 ROOT
