@<TRIPOS>MOLECULE
molecule
   18    18     1     0     0
SMALL
bcc


@<TRIPOS>ATOM
      1 O01          0.0000     0.0000     0.0000 o          1 4IC      -0.848800
      2 C02          1.3420     0.0000     0.0000 c          1 4IC       0.895600
      3 O03          1.9470     0.0000     1.0460 o          1 4IC      -0.848800
      4 C04          2.0950     0.0010    -1.3060 c3         1 4IC      -0.172200
      5 C06          3.5780     0.0020    -1.0310 c2         1 4IC      -0.036200
      6 C07          4.3490    -0.9390    -1.5570 ce         1 4IC      -0.315800
      7 C08          5.8030    -0.9380    -1.2880 cc         1 4IC       0.421100
      8 C09          6.7080    -1.8380    -1.7620 cd         1 4IC      -0.310600
      9 N10          7.9260    -1.4640    -1.2690 na         1 4IC      -0.310900
     10 C11          7.7370    -0.3570    -0.5160 cd         1 4IC       0.374400
     11 N12          6.4730    -0.0430    -0.5330 nc         1 4IC      -0.685000
     12 H2           1.8330     0.8860    -1.8730 hc         1 4IC       0.039200
     13 H3           1.8340    -0.8830    -1.8740 hc         1 4IC       0.039200
     14 H4           4.0120     0.7710    -0.4030 ha         1 4IC       0.146000
     15 H5           3.9150    -1.7070    -2.1850 ha         1 4IC       0.118000
     16 H6           6.5020    -2.6850    -2.4040 h4         1 4IC       0.167000
     17 H7           8.7990    -1.9250    -1.4340 hn         1 4IC       0.278700
     18 H8           8.5130     0.1840     0.0120 h5         1 4IC       0.049100
@<TRIPOS>BOND
     1     4     2 1   
     2     4     5 1   
     3     2     3 1   
     4     2     1 1   
     5     5     6 2   
     6     6     7 1   
     7    11     7 1   
     8    11    10 2   
     9     7     8 2   
    10    10     9 1   
    11     8     9 1   
    12     4    12 1   
    13     4    13 1   
    14     5    14 1   
    15     6    15 1   
    16     8    16 1   
    17     9    17 1   
    18    10    18 1   
@<TRIPOS>SUBSTRUCTURE
     1 4IC         1 TEMP              0 ****  ****    0 ROOT
