@<TRIPOS>MOLECULE
4IC
   18    18     1     0     0
SMALL
bcc


@<TRIPOS>ATOM
      1 O01         2.7310   -1.0420   -2.8800 o         1 4IC     -0.844300
      2 C02         2.1030   -0.8940   -1.7880 c         1 4IC      0.921600
      3 O03         0.9640   -1.3810   -1.5580 o         1 4IC     -0.844300
      4 C04         2.7650   -0.0220   -0.6950 c3        1 4IC     -0.185200
      5 C06         3.3450   -0.8290    0.3930 c2        1 4IC     -0.099200
      6 C07         4.6330   -1.1660    0.5620 ce        1 4IC     -0.253800
      7 C08         5.7070   -0.8700   -0.3570 cc        1 4IC      0.333100
      8 C09         5.5890   -0.7670   -1.7660 cd        1 4IC     -0.217600
      9 N10         6.8680   -0.5110   -2.2450 na        1 4IC     -0.331900
     10 C11         7.7220   -0.4680   -1.1320 cd        1 4IC      0.332400
     11 N12         7.0510   -0.6840    0.0160 nc        1 4IC     -0.677000
     12 H2          1.9690    0.6460   -0.2720 hc        1 4IC      0.034700
     13 H3          3.5430    0.6250   -1.1760 hc        1 4IC      0.034700
     14 H4          2.6070   -1.1820    1.1350 ha        1 4IC      0.107000
     15 H5          4.9350   -1.7370    1.4580 ha        1 4IC      0.109000
     16 H6          4.6920   -0.8690   -2.4060 h4        1 4IC      0.261000
     17 H7          7.1200   -0.3850   -3.1860 hn        1 4IC      0.286700
     18 H8          8.7940   -0.2800   -1.2190 h5        1 4IC      0.034100
@<TRIPOS>BOND
     1    1    2 1   
     2    2    3 1   
     3    2    4 1   
     4    4    5 1   
     5    4   12 1   
     6    4   13 1   
     7    5    6 2   
     8    5   14 1   
     9    6    7 1   
    10    6   15 1   
    11    7    8 2   
    12    7   11 1   
    13    8    9 1   
    14    8   16 1   
    15    9   10 1   
    16    9   17 1   
    17   10   11 2   
    18   10   18 1   
@<TRIPOS>SUBSTRUCTURE
     1 4IC         1 TEMP              0 ****  ****    0 ROOT
