@<TRIPOS>MOLECULE
4ID
   51    53     1     0     0
SMALL
bcc


@<TRIPOS>ATOM
      1 C1           0.0000     0.0000     0.0000 c          1 4ID       0.632700
      2 F1           7.6840    -2.0820     7.7600 f          1 4ID      -0.207967
      3 N1           1.3500     0.0000     0.0000 ns         1 4ID       0.073600
      4 O1          -0.6210     0.0000    -1.0510 o          1 4ID      -0.651500
      5 S1           3.7880    -0.0000     1.1750 ss         1 4ID      -0.205300
      6 C2           2.0260     0.0000     1.1830 cc         1 4ID       0.365800
      7 F2           6.2000    -2.3910     6.0510 f          1 4ID      -0.207967
      8 N2           6.0770    -0.0010     4.4560 ns         1 4ID      -0.040100
      9 O2           6.3650    -0.0010     2.2560 o          1 4ID      -0.610100
     10 S2          -2.4370    -0.0070     1.2860 sy         1 4ID       0.985200
     11 C3           4.1110    -0.0010     2.9560 c3         1 4ID       0.014700
     12 F3           6.1300    -0.4740     7.2920 f          1 4ID      -0.207967
     13 N3           1.3830    -0.0000     2.3350 nd         1 4ID      -0.640300
     14 O3          -2.8660    -1.0240     0.3920 o          1 4ID      -0.584800
     15 C4           5.5980    -0.0000     3.1960 c          1 4ID       0.582100
     16 O4          -2.7960     0.0210     2.6610 o          1 4ID      -0.584800
     17 C5           7.4560    -0.0960     4.6810 ca         1 4ID      -0.031400
     18 C6           7.9340    -0.7910     5.7830 ca         1 4ID      -0.240300
     19 C7           6.9700    -1.4470     6.7380 c3         1 4ID       0.642200
     20 C8           9.2950    -0.8840     6.0020 ca         1 4ID      -0.028000
     21 C9          10.1800    -0.2850     5.1250 ca         1 4ID      -0.116000
     22 C10          9.7060     0.4090     4.0270 ca         1 4ID      -0.045000
     23 C11          8.3470     0.5000     3.7990 ca         1 4ID      -0.113000
     24 C12          0.0530    -0.0000     2.3860 cd         1 4ID       0.280600
     25 C13         -0.6760    -0.0060     1.2320 cc         1 4ID      -0.346300
     26 C14         -2.9810     1.5220     0.5990 ca         1 4ID      -0.136500
     27 C15         -3.7050     1.5320    -0.5780 ca         1 4ID       0.031000
     28 C16         -4.1310     2.7320    -1.1170 ca         1 4ID      -0.142000
     29 C17         -3.8330     3.9210    -0.4780 ca         1 4ID      -0.034300
     30 C18         -4.2980     5.2290    -1.0670 c3         1 4ID       0.057200
     31 C19         -3.1090     3.9110     0.7000 ca         1 4ID      -0.141000
     32 C20         -2.6870     2.7110     1.2410 ca         1 4ID       0.017700
     33 C21         -1.9030     2.7010     2.5270 c3         1 4ID      -0.015800
     34 HN1          1.8530     0.0000    -0.8660 hn         1 4ID       0.193500
     35 HN2          5.4520     0.1140     5.2280 hn         1 4ID       0.185500
     36 H3           3.6730     0.8840     3.4020 h1         1 4ID       0.071200
     37 H3A          3.6730    -0.8850     3.4020 h1         1 4ID       0.071200
     38 H8           9.6690    -1.4270     6.8620 ha         1 4ID       0.122000
     39 H9          11.2460    -0.3570     5.3010 ha         1 4ID       0.113000
     40 H10         10.4020     0.8760     3.3410 ha         1 4ID       0.109000
     41 H11          7.9770     1.0440     2.9380 ha         1 4ID       0.152000
     42 H12         -0.4510    -0.0030     3.3440 h4         1 4ID       0.148000
     43 H15         -3.9390     0.6000    -1.0780 ha         1 4ID       0.134000
     44 H16         -4.6990     2.7400    -2.0400 ha         1 4ID       0.112000
     45 H18         -4.8110     5.8050    -0.3070 hc         1 4ID       0.010033
     46 H18A        -3.4420     5.7880    -1.4270 hc         1 4ID       0.010033
     47 H18B        -4.9740     5.0350    -1.8900 hc         1 4ID       0.010033
     48 H19         -2.8770     4.8430     1.2010 ha         1 4ID       0.112000
     49 H21         -0.8460     2.6210     2.3050 hc         1 4ID       0.031367
     50 H21A        -2.2100     1.8550     3.1300 hc         1 4ID       0.031367
     51 H21B        -2.0890     3.6190     3.0710 hc         1 4ID       0.031367
@<TRIPOS>BOND
     1     1     3 1   
     2     1     4 2   
     3     1    25 1   
     4     2    19 1   
     5     3     6 1   
     6     3    34 1   
     7     5     6 1   
     8     5    11 1   
     9     6    13 2   
    10     7    19 1   
    11     8    15 1   
    12     8    17 1   
    13     8    35 1   
    14     9    15 2   
    15    10    14 2   
    16    10    16 2   
    17    10    25 1   
    18    10    26 1   
    19    11    15 1   
    20    11    36 1   
    21    11    37 1   
    22    12    19 1   
    23    13    24 1   
    24    17    18 ar  
    25    17    23 ar  
    26    18    19 1   
    27    18    20 ar  
    28    20    21 ar  
    29    20    38 1   
    30    21    22 ar  
    31    21    39 1   
    32    22    23 ar  
    33    22    40 1   
    34    23    41 1   
    35    24    25 2   
    36    24    42 1   
    37    26    27 ar  
    38    26    32 ar  
    39    27    28 ar  
    40    27    43 1   
    41    28    29 ar  
    42    28    44 1   
    43    29    30 1   
    44    29    31 ar  
    45    30    45 1   
    46    30    46 1   
    47    30    47 1   
    48    31    32 ar  
    49    31    48 1   
    50    32    33 1   
    51    33    49 1   
    52    33    50 1   
    53    33    51 1   
@<TRIPOS>SUBSTRUCTURE
     1 4ID         1 TEMP              0 ****  ****    0 ROOT
