@<TRIPOS>MOLECULE
4IG
   59    62     1     0     0
SMALL
bcc


@<TRIPOS>ATOM
      1 C1           0.0000     0.0000     0.0000 ca         1 4IG       0.562200
      2 N1           1.3270     0.0000     0.0000 nb         1 4IG      -0.718000
      3 C2           2.0050     0.0000     1.1390 ca         1 4IG       0.753900
      4 N2           1.3960     0.0000     2.3160 nb         1 4IG      -0.688000
      5 C3           0.0760     0.0000     2.4020 ca         1 4IG       0.486600
      6 C4          -0.6800    -0.0050     1.2320 cp         1 4IG      -0.382600
      7 N3          -0.7040     0.0000    -1.1920 nv         1 4IG      -0.531500
      8 N4           3.3880    -0.0000     1.0970 nv         1 4IG      -0.600500
      9 C5          -0.6010     0.0010     3.7480 c3         1 4IG      -0.094700
     10 C6          -0.8310     1.4430     4.2040 c3         1 4IG       0.011900
     11 C7          -2.8440    -1.1010     1.8130 ca         1 4IG      -0.091000
     12 C8          -4.2220    -1.1060     1.8580 ca         1 4IG      -0.102000
     13 C9          -4.9430    -0.0200     1.3780 ca         1 4IG       0.082100
     14 C10         -4.2610     1.0780     0.8560 ca         1 4IG      -0.121400
     15 C11         -2.8810     1.0910     0.8090 ca         1 4IG      -0.122000
     16 C12         -2.1620    -0.0060     1.2830 cp         1 4IG       0.009000
     17 O3          -6.2970    -0.0440     1.4170 os         1 4IG      -0.272900
     18 C14         -6.7840     1.2390     1.7870 c3         1 4IG       0.162400
     19 C15         -6.2740     2.2910     0.8340 c          1 4IG       0.592500
     20 N5          -4.9980     2.1800     0.3850 n          1 4IG       0.017000
     21 C16         -4.4200     3.1540    -0.5430 c3         1 4IG       0.044000
     22 C17         -3.7560     4.2810     0.2510 c3         1 4IG      -0.069400
     23 C18         -3.1520     5.3000    -0.7180 c3         1 4IG       0.205400
     24 O1          -2.5330     6.3540     0.0230 os         1 4IG      -0.397600
     25 C19         -1.9900     7.2670    -0.9320 c3         1 4IG       0.241700
     26 O4          -6.9830     3.2090     0.4800 o          1 4IG      -0.647500
     27 C20         -5.8960     3.1780     4.9040 ca         1 4IG       0.137900
     28 C21         -6.3250     2.8770     3.6230 ca         1 4IG      -0.139500
     29 C22         -6.3150     1.5660     3.1810 ca         1 4IG      -0.089300
     30 C23         -5.8820     0.5560     4.0190 ca         1 4IG      -0.139500
     31 C24         -5.4470     0.8570     5.2980 ca         1 4IG       0.137900
     32 C25         -5.4560     2.1680     5.7420 ca         1 4IG      -0.163000
     33 F1          -5.0190    -0.1300     6.1160 f          1 4IG      -0.121400
     34 HN31        -0.2680     0.3290    -2.0300 hn         1 4IG       0.275800
     35 HN32        -1.6320    -0.3730    -1.2240 hn         1 4IG       0.275800
     36 HN41         3.8770     0.7870     0.7190 hn         1 4IG       0.277800
     37 HN42         3.8990    -0.7850     1.4500 hn         1 4IG       0.277800
     38 H51          0.0270    -0.5100     4.4680 hc         1 4IG       0.031700
     39 H52         -1.5540    -0.5110     3.6740 hc         1 4IG       0.031700
     40 H61         -1.6160     1.4650     4.9500 hc         1 4IG       0.005367
     41 H62         -1.1230     2.0480     3.3540 hc         1 4IG       0.005367
     42 H63          0.0840     1.8370     4.6300 hc         1 4IG       0.005367
     43 H7          -2.2890    -1.9580     2.1740 ha         1 4IG       0.119000
     44 H8          -4.7450    -1.9610     2.2700 ha         1 4IG       0.121000
     45 H11         -2.3570     1.9870     0.4980 ha         1 4IG       0.132000
     46 H14         -7.8670     1.2300     1.7610 h1         1 4IG       0.080700
     47 H161        -3.6800     2.6660    -1.1650 h1         1 4IG       0.038200
     48 H162        -5.2030     3.5650    -1.1690 h1         1 4IG       0.038200
     49 H171        -4.4970     4.7700     0.8730 hc         1 4IG       0.036200
     50 H172        -2.9740     3.8700     0.8770 hc         1 4IG       0.036200
     51 H181        -2.4110     4.8120    -1.3390 h1         1 4IG      -0.005800
     52 H182        -3.9350     5.7110    -1.3440 h1         1 4IG      -0.005800
     53 H191        -1.2710     6.7520    -1.5570 h1         1 4IG      -0.010967
     54 H192        -1.5000     8.0820    -0.4140 h1         1 4IG      -0.010967
     55 H193        -2.7880     7.6600    -1.5500 h1         1 4IG      -0.010967
     56 H21         -6.6690     3.6670     2.9670 ha         1 4IG       0.144000
     57 H23         -5.8750    -0.4700     3.6710 ha         1 4IG       0.144000
     58 H25         -5.1170     2.4030     6.7440 ha         1 4IG       0.137000
     59 F2          -5.9050     4.4580     5.3360 f          1 4IG      -0.121400
@<TRIPOS>BOND
     1     1     2 ar  
     2     1     6 ar  
     3     1     7 1   
     4     2     3 ar  
     5     3     4 ar  
     6     3     8 1   
     7     4     5 ar  
     8     5     6 ar  
     9     5     9 1   
    10     6    16 1   
    11     7    34 1   
    12     7    35 1   
    13     8    36 1   
    14     8    37 1   
    15     9    10 1   
    16     9    38 1   
    17     9    39 1   
    18    10    40 1   
    19    10    41 1   
    20    10    42 1   
    21    11    12 ar  
    22    11    16 ar  
    23    11    43 1   
    24    12    13 ar  
    25    12    44 1   
    26    13    14 ar  
    27    13    17 1   
    28    14    15 ar  
    29    14    20 1   
    30    15    16 ar  
    31    15    45 1   
    32    17    18 1   
    33    18    19 1   
    34    18    29 1   
    35    18    46 1   
    36    19    20 1   
    37    19    26 2   
    38    20    21 1   
    39    21    22 1   
    40    21    47 1   
    41    21    48 1   
    42    22    23 1   
    43    22    49 1   
    44    22    50 1   
    45    23    24 1   
    46    23    51 1   
    47    23    52 1   
    48    24    25 1   
    49    25    53 1   
    50    25    54 1   
    51    25    55 1   
    52    27    28 ar  
    53    27    32 ar  
    54    27    59 1   
    55    28    29 ar  
    56    28    56 1   
    57    29    30 ar  
    58    30    31 ar  
    59    30    57 1   
    60    31    32 ar  
    61    31    33 1   
    62    32    58 1   
@<TRIPOS>SUBSTRUCTURE
     1 4IG         1 TEMP              0 ****  ****    0 ROOT
