@<TRIPOS>MOLECULE
molecule
   44    45     1     0     0
SMALL
bcc


@<TRIPOS>ATOM
      1 C1           0.0000     0.0000     0.0000 c3         1 4IH       0.231800
      2 C3           2.0400     0.0010    -1.4430 c3         1 4IH       0.156800
      3 C4           4.0360     0.0010    -2.8130 c3         1 4IH       0.205100
      4 C5           5.5420     0.0010    -2.7730 ca         1 4IH      -0.080300
      5 C6           6.2320    -1.1980    -2.7550 ca         1 4IH      -0.104000
      6 C8           8.3100     0.0020    -2.6990 cp         1 4IH      -0.025000
      7 C9           7.6120     1.2080    -2.7300 ca         1 4IH       0.035400
      8 C10          6.2300     1.2010    -2.7600 ca         1 4IH      -0.119000
      9 C11          9.7930     0.0010    -2.6600 cp         1 4IH      -0.049000
     10 C12         10.4680    -0.7790    -1.7230 ca         1 4IH      -0.106500
     11 C13         11.8480    -0.7760    -1.6900 ca         1 4IH      -0.131500
     12 C14         12.5610    -0.0000    -2.5870 ca         1 4IH      -0.121000
     13 C15         11.8970     0.7740    -3.5200 ca         1 4IH      -0.131500
     14 C16         10.5170     0.7750    -3.5650 ca         1 4IH      -0.106500
     15 Cl           8.4740     2.7130    -2.7070 cl         1 4IH      -0.100400
     16 C7           7.6110    -1.2040    -2.7170 ca         1 4IH      -0.111000
     17 N1           3.5090     0.0010    -1.4420 n7         1 4IH      -0.815200
     18 C2           1.5300     0.0000     0.0000 c3         1 4IH      -0.090400
     19 N           -0.4890     0.0000     1.3800 n7         1 4IH      -0.915100
     20 S           -2.0710     0.3700     1.7000 s6         1 4IH       1.327900
     21 O           -2.1700     0.2950     3.1150 o          1 4IH      -0.627800
     22 O1          -2.2890     1.5950     1.0130 o          1 4IH      -0.627800
     23 C           -3.0150    -0.9700     0.9230 c3         1 4IH      -0.250300
     24 H1          -0.3610     0.8840    -0.5110 h1         1 4IH       0.044700
     25 H2          -0.3610    -0.8840    -0.5110 h1         1 4IH       0.044700
     26 H3           1.6790    -0.8840    -1.9540 h1         1 4IH       0.034200
     27 H4           1.6780     0.8850    -1.9530 h1         1 4IH       0.034200
     28 H5           3.6890    -0.8840    -3.3330 h1         1 4IH       0.040700
     29 H6           3.6890     0.8850    -3.3340 h1         1 4IH       0.040700
     30 H7           5.6870    -2.1350    -2.7690 ha         1 4IH       0.140000
     31 H8           5.6850     2.1370    -2.7840 ha         1 4IH       0.142000
     32 H9           9.9100    -1.3860    -1.0200 ha         1 4IH       0.137000
     33 H10         12.3740    -1.3810    -0.9610 ha         1 4IH       0.131000
     34 H11         13.6440     0.0020    -2.5570 ha         1 4IH       0.129000
     35 H12         12.4600     1.3780    -4.2210 ha         1 4IH       0.131000
     36 H13          9.9980     1.3820    -4.2970 ha         1 4IH       0.137000
     37 H14          8.1490    -2.1440    -2.6980 ha         1 4IH       0.143000
     38 H15          3.8430     0.8100    -0.9570 hn         1 4IH       0.359800
     39 H17          1.8910    -0.8850     0.5100 hc         1 4IH       0.058200
     40 H18          1.8910     0.8840     0.5110 hc         1 4IH       0.058200
     41 H19          0.1340    -0.2230     2.1310 hn         1 4IH       0.458800
     42 H20         -4.0120    -1.0020     1.3450 h1         1 4IH       0.097367
     43 H21         -2.5160    -1.9150     1.1040 h1         1 4IH       0.097367
     44 H22         -3.0800    -0.7950    -0.1440 h1         1 4IH       0.097367
@<TRIPOS>BOND
     1    11    10 ar  
     2    11    12 ar  
     3    15     7 1   
     4    10     9 ar  
     5    12    13 ar  
     6     9     6 1   
     7     9    14 ar  
     8     7     6 ar  
     9     7     8 ar  
    10    13    14 ar  
    11     6    16 ar  
    12     8     4 ar  
    13    16     5 ar  
    14     4     5 ar  
    15     4     3 1   
    16     3    17 1   
    17    17     2 1   
    18     2    18 1   
    19    18     1 1   
    20     1    19 1   
    21    19    20 1   
    22    23    20 1   
    23    20    21 2   
    24    20    22 2   
    25     1    24 1   
    26     1    25 1   
    27     2    26 1   
    28     2    27 1   
    29     3    28 1   
    30     3    29 1   
    31     5    30 1   
    32     8    31 1   
    33    10    32 1   
    34    11    33 1   
    35    12    34 1   
    36    13    35 1   
    37    14    36 1   
    38    16    37 1   
    39    17    38 1   
    40    18    39 1   
    41    18    40 1   
    42    19    41 1   
    43    23    42 1   
    44    23    43 1   
    45    23    44 1   
@<TRIPOS>SUBSTRUCTURE
     1 4IH         1 TEMP              0 ****  ****    0 ROOT
