@<TRIPOS>MOLECULE
4IH
   44    45     1     0     0
SMALL
bcc


@<TRIPOS>ATOM
      1 C1           0.0000     0.0000     0.0000 c3         1 4IH       0.228800
      2 C3           2.0400     0.0010    -1.4430 c3         1 4IH       0.147800
      3 C4           4.0360     0.0010    -2.8130 c3         1 4IH       0.204100
      4 C5           5.5420     0.0010    -2.7730 ca         1 4IH      -0.089300
      5 C6           6.2320    -1.1980    -2.7550 ca         1 4IH      -0.077000
      6 C8           8.3100     0.0020    -2.6990 cp         1 4IH      -0.023000
      7 C9           7.6120     1.2080    -2.7300 ca         1 4IH      -0.028600
      8 C10          6.2300     1.2010    -2.7600 ca         1 4IH      -0.095000
      9 C11          9.7930     0.0010    -2.6600 cp         1 4IH      -0.043000
     10 C12         10.4680    -0.7790    -1.7230 ca         1 4IH      -0.089000
     11 C13         11.8480    -0.7760    -1.6900 ca         1 4IH      -0.100500
     12 C14         12.5610    -0.0000    -2.5870 ca         1 4IH      -0.097000
     13 C15         11.8970     0.7740    -3.5200 ca         1 4IH      -0.100500
     14 C16         10.5170     0.7750    -3.5650 ca         1 4IH      -0.089000
     15 Cl           8.4740     2.7130    -2.7070 cl         1 4IH      -0.016400
     16 C7           7.6110    -1.2040    -2.7170 ca         1 4IH      -0.085000
     17 N1           3.5090     0.0010    -1.4420 n7         1 4IH      -0.583200
     18 C2           1.5300     0.0000     0.0000 c3         1 4IH      -0.040400
     19 N           -0.4890     0.0000     1.3800 n7         1 4IH      -0.600100
     20 S           -2.0710     0.3700     1.7000 s6         1 4IH       0.955900
     21 O           -2.1700     0.2950     3.1150 o          1 4IH      -0.584300
     22 O1          -2.2890     1.5950     1.0130 o          1 4IH      -0.584300
     23 C           -3.0150    -0.9700     0.9230 c3         1 4IH       0.008700
     24 H1          -0.3610     0.8840    -0.5110 h1         1 4IH       0.011200
     25 H2          -0.3610    -0.8840    -0.5110 h1         1 4IH       0.011200
     26 H3           1.6790    -0.8840    -1.9540 h1         1 4IH       0.007200
     27 H4           1.6780     0.8850    -1.9530 h1         1 4IH       0.007200
     28 H5           3.6890    -0.8840    -3.3330 h1         1 4IH       0.010700
     29 H6           3.6890     0.8850    -3.3340 h1         1 4IH       0.010700
     30 H7           5.6870    -2.1350    -2.7690 ha         1 4IH       0.111000
     31 H8           5.6850     2.1370    -2.7840 ha         1 4IH       0.115000
     32 H9           9.9100    -1.3860    -1.0200 ha         1 4IH       0.111500
     33 H10         12.3740    -1.3810    -0.9610 ha         1 4IH       0.103000
     34 H11         13.6440     0.0020    -2.5570 ha         1 4IH       0.102000
     35 H12         12.4600     1.3780    -4.2210 ha         1 4IH       0.103000
     36 H13          9.9980     1.3820    -4.2970 ha         1 4IH       0.111500
     37 H14          8.1490    -2.1440    -2.6980 ha         1 4IH       0.113000
     38 H15          3.8430     0.8100    -0.9570 hn         1 4IH       0.258800
     39 H17          1.8910    -0.8850     0.5100 hc         1 4IH       0.025700
     40 H18          1.8910     0.8840     0.5110 hc         1 4IH       0.025700
     41 H19          0.1340    -0.2230     2.1310 hn         1 4IH       0.355800
     42 H20         -4.0120    -1.0020     1.3450 h1         1 4IH       0.061700
     43 H21         -2.5160    -1.9150     1.1040 h1         1 4IH       0.061700
     44 H22         -3.0800    -0.7950    -0.1440 h1         1 4IH       0.061700
@<TRIPOS>BOND
     1     1    18 1   
     2     1    19 1   
     3     1    24 1   
     4     1    25 1   
     5     2    17 1   
     6     2    18 1   
     7     2    26 1   
     8     2    27 1   
     9     3     4 1   
    10     3    17 1   
    11     3    28 1   
    12     3    29 1   
    13     4     5 ar  
    14     4     8 ar  
    15     5    16 ar  
    16     5    30 1   
    17     6     7 ar  
    18     6     9 1   
    19     6    16 ar  
    20     7     8 ar  
    21     7    15 1   
    22     8    31 1   
    23     9    10 ar  
    24     9    14 ar  
    25    10    11 ar  
    26    10    32 1   
    27    11    12 ar  
    28    11    33 1   
    29    12    13 ar  
    30    12    34 1   
    31    13    14 ar  
    32    13    35 1   
    33    14    36 1   
    34    16    37 1   
    35    17    38 1   
    36    18    39 1   
    37    18    40 1   
    38    19    20 1   
    39    19    41 1   
    40    20    21 2   
    41    20    22 2   
    42    20    23 1   
    43    23    42 1   
    44    23    43 1   
    45    23    44 1   
@<TRIPOS>SUBSTRUCTURE
     1 4IH         1 TEMP              0 ****  ****    0 ROOT
