@<TRIPOS>MOLECULE
4IP
   36    36     1     0     0
SMALL
bcc


@<TRIPOS>ATOM
      1 C1         -0.0210    0.0430    0.1030 c3        1 4IP      0.249100
      2 O1         -0.3630   -0.1960   -1.2350 os        1 4IP     -0.614200
      3 C2          1.5240    0.1900    0.2840 c3        1 4IP      0.094100
      4 O2          2.2160   -0.7080   -0.5800 oh        1 4IP     -0.654800
      5 C3          2.0700    0.0480    1.7610 c3        1 4IP      0.190100
      6 O3          3.4360    0.3210    1.7640 os        1 4IP     -0.598200
      7 C4          1.6180   -1.4260    2.2210 c3        1 4IP      0.227100
      8 O4          2.3330   -2.0120    3.2470 os        1 4IP     -0.566200
      9 C5          0.0530   -1.2050    2.4770 c3        1 4IP      0.190100
     10 O5         -0.6270   -2.1980    3.1850 os        1 4IP     -0.598200
     11 C6         -0.5650   -1.0960    1.0230 c3        1 4IP      0.094100
     12 O6         -1.9760   -0.9100    1.0770 oh        1 4IP     -0.654800
     13 P1         -1.2530    0.7600   -2.3190 p5        1 4IP      1.380900
     14 O1P        -1.8020    2.0150   -1.6680 o         1 4IP     -0.985833
     15 O2P        -0.3220    1.1120   -3.4770 o         1 4IP     -0.985833
     16 O3P        -2.3650   -0.1280   -2.8730 o         1 4IP     -0.985833
     17 P3          4.1650    1.8290    2.1330 p5        1 4IP      1.367400
     18 O4P         3.0970    2.8860    2.3280 o         1 4IP     -0.977500
     19 O5P         5.0450    1.7280    3.3710 o         1 4IP     -0.977500
     20 O6P         5.0590    2.1350    0.9340 o         1 4IP     -0.977500
     21 P4          3.2680   -3.4460    3.0390 p5        1 4IP      1.365900
     22 O7P         4.3000   -3.4000    4.1630 o         1 4IP     -0.977167
     23 O8P         2.4330   -4.7040    3.2240 o         1 4IP     -0.977167
     24 O9P         3.9050   -3.4770    1.6620 o         1 4IP     -0.977167
     25 P5         -1.7980   -1.9680    4.4070 p5        1 4IP      1.367400
     26 OPF        -1.7800   -3.1510    5.3660 o         1 4IP     -0.977500
     27 OPG        -1.6180   -0.6610    5.1520 o         1 4IP     -0.977500
     28 OPH        -3.1120   -1.9960    3.6330 o         1 4IP     -0.977500
     29 H1         -0.4930    1.0150    0.4270 h1        1 4IP      0.010700
     30 H2          1.7770    1.2230   -0.0920 h1        1 4IP      0.011200
     31 HO2         2.9140   -1.1140   -0.0430 ho        1 4IP      0.423500
     32 H3          1.5590    0.8190    2.4010 h1        1 4IP      0.014700
     33 H4          1.7150   -2.1030    1.3200 h1        1 4IP      0.004700
     34 H5         -0.1070   -0.2330    3.0220 h1        1 4IP      0.014700
     35 H6         -0.3740   -2.0780    0.5050 h1        1 4IP      0.011200
     36 HO6        -2.2840   -1.3350    1.9000 ho        1 4IP      0.423500
@<TRIPOS>BOND
     1    1    2 1   
     2    1    3 1   
     3    1   11 1   
     4    1   29 1   
     5    2   13 1   
     6    3    4 1   
     7    3    5 1   
     8    3   30 1   
     9    4   31 1   
    10    5    6 1   
    11    5    7 1   
    12    5   32 1   
    13    6   17 1   
    14    7    8 1   
    15    7    9 1   
    16    7   33 1   
    17    8   21 1   
    18    9   10 1   
    19    9   11 1   
    20    9   34 1   
    21   10   25 1   
    22   11   12 1   
    23   11   35 1   
    24   12   36 1   
    25   13   14 1   
    26   13   15 1   
    27   13   16 1   
    28   17   18 1   
    29   17   19 1   
    30   17   20 1   
    31   21   22 1   
    32   21   23 1   
    33   21   24 1   
    34   25   26 1   
    35   25   27 1   
    36   25   28 1   
@<TRIPOS>SUBSTRUCTURE
     1 4IP         1 TEMP              0 ****  ****    0 ROOT
