@<TRIPOS>MOLECULE
molecule
   36    36     1     0     0
SMALL
bcc


@<TRIPOS>ATOM
      1 C1           0.0000     0.0000     0.0000 c3         1 4IP       0.202100
      2 O1          -0.4760     0.0010    -1.3470 os         1 4IP      -0.624200
      3 C2           1.5300     0.0000     0.0000 c3         1 4IP       0.113600
      4 O2           2.0060    -1.1670    -0.6740 oh         1 4IP      -0.574800
      5 C3           2.0390     0.0000     1.4430 c3         1 4IP       0.205600
      6 O3           3.4690    -0.0010     1.4430 os         1 4IP      -0.568700
      7 C4           1.5300    -1.2500     2.1640 c3         1 4IP       0.224100
      8 O4           2.0060    -1.2500     3.5110 os         1 4IP      -0.523200
      9 C5          -0.0000    -1.2500     2.1640 c3         1 4IP       0.205600
     10 O5          -0.4770    -2.4170     2.8370 os         1 4IP      -0.568700
     11 C6          -0.5110    -1.2490     0.7210 c3         1 4IP       0.113600
     12 O6          -1.9390    -1.2490     0.7210 oh         1 4IP      -0.574800
     13 P1          -1.4050     1.1700    -1.9480 p5         1 4IP       1.267900
     14 O1P         -0.7380     2.4770    -1.7570 o          1 4IP      -0.967833
     15 O2P         -1.6420     0.9130    -3.5210 o          1 4IP      -0.967833
     16 O3P         -2.8240     1.1740    -1.1860 o          1 4IP      -0.967833
     17 P3           4.3460     1.1690     2.1180 p5         1 4IP       1.286400
     18 O4P          3.9430     1.3330     3.5330 o          1 4IP      -0.968833
     19 O5P          5.9060     0.7790     2.0460 o          1 4IP      -0.968833
     20 O6P          4.1000     2.5490     1.3270 o          1 4IP      -0.968833
     21 P4           2.9350    -2.4200     4.1120 p5         1 4IP       1.300900
     22 O7P          3.3870    -2.0310     5.6080 o          1 4IP      -0.972167
     23 O8P          2.1070    -3.8000     4.1430 o          1 4IP      -0.972167
     24 O9P          4.1350    -2.5840     3.2610 o          1 4IP      -0.972167
     25 P5          -1.4060    -2.3530     4.1500 p5         1 4IP       1.286400
     26 OPF         -1.6420    -3.8430     4.7130 o          1 4IP      -0.968833
     27 OPG         -0.7390    -1.5350     5.1880 o          1 4IP      -0.968833
     28 OPH         -2.8230    -1.6910     3.7740 o          1 4IP      -0.968833
     29 H1          -0.3590     0.8830     0.5150 h1         1 4IP       0.054700
     30 H2           1.8890     0.8870    -0.5070 h1         1 4IP       0.017200
     31 HO2          2.5290    -0.9100    -1.4150 ho         1 4IP       0.330500
     32 H3           1.6740     0.8830     1.9530 h1         1 4IP       0.040700
     33 H4           1.8890    -2.1330     1.6490 h1         1 4IP       0.024700
     34 H5          -0.3590    -0.3630     2.6720 h1         1 4IP       0.040700
     35 H6          -0.1450    -2.1320     0.2100 h1         1 4IP       0.017200
     36 HO6         -2.2530    -2.0210     0.2810 ho         1 4IP       0.330500
@<TRIPOS>BOND
     1     1     2 1
     2     1     3 1
     3     1    11 1
     4     1    29 1
     5     2    13 1
     6     3     4 1
     7     3     5 1
     8     3    30 1
     9     4    31 1
    10     5     6 1
    11     5     7 1
    12     5    32 1
    13     6    17 1
    14     7     8 1
    15     7     9 1
    16     7    33 1
    17     8    21 1
    18     9    10 1
    19     9    11 1
    20     9    34 1
    21    10    25 1
    22    11    12 1
    23    11    35 1
    24    12    36 1
    25    13    14 1
    26    13    15 1
    27    13    16 1
    28    17    18 1
    29    17    19 1
    30    17    20 1
    31    21    22 1
    32    21    23 1
    33    21    24 1
    34    25    26 1
    35    25    27 1
    36    25    28 1
@<TRIPOS>SUBSTRUCTURE
     1 4IP         1 TEMP              0 ****  ****    0 ROOT
