@<TRIPOS>MOLECULE
4J3
   12    11     1     0     0
SMALL
bcc


@<TRIPOS>ATOM
      1 N1           0.0000     0.0000     0.0000 nz         1 4J3      -0.173500
      2 O2           2.0570     0.0000     1.3630 o          1 4J3      -0.417800
      3 N2           1.9520    -1.4320    -2.0320 nz         1 4J3       0.381900
      4 O1           2.1070    -1.3330    -0.5810 os         1 4J3      -0.402000
      5 O3           2.0570     0.9980    -0.9290 o          1 4J3      -0.417800
      6 S1           1.6560     0.0000     0.0000 s6         1 4J3       1.275400
      7 H1          -0.3340     0.2760    -0.9020 hn         1 4J3       0.340133
      8 H2          -0.3340     0.6430     0.6900 hn         1 4J3       0.340133
      9 H4           2.2490    -2.3380    -2.3380 hn         1 4J3       0.244133
     10 H3           0.9910    -1.2960    -2.2760 hn         1 4J3       0.244133
     11 H13         -0.3340    -0.9210     0.2030 hn         1 4J3       0.340133
     12 H23          2.4730    -0.7010    -2.4740 hn         1 4J3       0.244133
@<TRIPOS>BOND
     1     1     6 1   
     2     1     7 1   
     3     1     8 1   
     4     1    11 1   
     5     2     6 2   
     6     3     4 1   
     7     3     9 1   
     8     3    10 1   
     9     3    12 1   
    10     4     6 1   
    11     5     6 2   
@<TRIPOS>SUBSTRUCTURE
     1 4J3         1 TEMP              0 ****  ****    0 ROOT
