@<TRIPOS>MOLECULE
molecule
   53    54     1     0     0
SMALL
bcc


@<TRIPOS>ATOM
      1 CAA          0.0000     0.0000     0.0000 c3         1 4J6      -0.253100
      2 CAB          2.9500     0.0950     3.8840 c3         1 4J6      -0.107100
      3 NAC         13.0580    -2.2980     7.1340 nz         1 4J6      -0.819500
      4 OAE          5.4640    -3.7460     0.4790 o          1 4J6      -0.793800
      5 OAF         12.6790    -0.0350     8.0430 o          1 4J6      -0.556800
      6 OAG         14.0480    -0.3560     5.9770 o          1 4J6      -0.556800
      7 OAH          6.0520    -3.7050     2.6240 o          1 4J6      -0.793800
      8 OAI          2.0070     1.1660    -0.6740 oh         1 4J6      -0.608800
      9 CAJ          1.5380    -1.2300     2.1540 c          1 4J6       0.603900
     10 CAK          8.0070    -0.4500     3.4890 c3         1 4J6       0.154800
     11 CAM          7.7840    -0.4850     5.9300 c3         1 4J6      -0.051400
     12 NAN          4.0810    -1.2680     0.9050 nu         1 4J6      -0.778000
     13 NAO          9.3260    -0.6520     4.1250 n7         1 4J6      -0.795200
     14 SAQ          5.7740    -1.7100     4.4940 ss         1 4J6      -0.080700
     15 CAS          4.8470    -1.9130     1.8900 ce         1 4J6       0.205800
     16 CAT          1.5300     0.0000     0.0000 c3         1 4J6       0.145100
     17 CAU          4.1070     0.0560     2.8830 c3         1 4J6      -0.048500
     18 CAV          9.2110    -0.0730     5.4890 c3         1 4J6       0.134500
     19 CAW          6.9680    -0.3570     4.6230 c3         1 4J6      -0.053600
     20 CAX          2.0400     0.0000     1.4420 c3         1 4J6      -0.189700
     21 CAY          3.5700     0.0000     1.4420 c3         1 4J6       0.192500
     22 CAZ          4.9090    -1.2160     3.0400 c2         1 4J6      -0.235600
     23 SBA         12.9390    -0.6800     6.8030 s6         1 4J6       1.295800
     24 H1           0.5320     0.5290     0.7820 hc         1 4J6       0.085033
     25 H2          -0.4700     0.6230    -0.7520 hc         1 4J6       0.085033
     26 H3          -0.4700    -0.9300     0.2980 hc         1 4J6       0.085033
     27 H4           2.5910    -0.9120     4.0600 hc         1 4J6       0.043033
     28 H5           2.1460     0.7010     3.4830 hc         1 4J6       0.043033
     29 H6           3.2940     0.5240     4.8170 hc         1 4J6       0.043033
     30 H7          12.9920    -2.5010     8.1120 hn         1 4J6       0.489133
     31 H8          13.8400    -2.7300     6.6830 hn         1 4J6       0.489133
     32 H11          1.9510     1.0360    -1.6060 ho         1 4J6       0.410000
     33 H12          1.8470    -2.2130     1.8180 h4         1 4J6       0.032200
     34 H14          7.7760    -1.2910     2.8470 h1         1 4J6       0.072200
     35 H15          8.0110     0.4690     2.9170 h1         1 4J6       0.072200
     36 H16         10.0770    -1.7400     6.5340 h1         1 4J6       0.054200
     37 H17         10.2010    -0.1980     7.3930 h1         1 4J6       0.054200
     38 H18          7.4070     0.1950     6.6840 hc         1 4J6       0.060700
     39 H19          7.7750    -1.5080     6.2870 hc         1 4J6       0.060700
     40 H20          3.9140    -1.6150    -0.0190 hn         1 4J6       0.476800
     41 H21         10.0250    -0.1540     3.6100 hn         1 4J6       0.331800
     42 H23         11.6910    -0.1090     4.9280 hn         1 4J6       0.490800
     43 H24          1.8910    -0.8850    -0.5110 h1         1 4J6       0.023700
     44 H25          4.7490     0.9200     3.0090 hc         1 4J6       0.032700
     45 H26          9.3000     1.0060     5.4520 h1         1 4J6       0.044700
     46 H27          6.4640     0.6010     4.5900 h1         1 4J6       0.066700
     47 H28          1.5630     0.9350     1.7110 hc         1 4J6       0.091700
     48 H29          4.1640     0.9050     1.4830 h1         1 4J6       0.106700
     49 CAL         10.2610    -0.6780     6.4230 c3         1 4J6       0.221800
     50 NAP         11.5970    -0.4700     5.8570 n7         1 4J6      -0.889100
     51 OAD          0.7460    -1.1240     3.0580 o          1 4J6      -0.534100
     52 HAC3        12.1970    -2.4490     6.6470 hn         1 4J6       0.489133
     53 CAR          5.4840    -3.1610     1.6950 c          1 4J6       0.856800
@<TRIPOS>BOND
     1     5    23 2
     2    50    23 1
     3    50    49 1
     4    23     3 1
     5    23     6 2
     6    18    13 1
     7    18    49 1
     8    18    11 1
     9    13    10 1
    10    10    19 1
    11    11    19 1
    12     7    53 1
    13    19    14 1
    14    53     4 1
    15    53    15 1
    16    14    22 1
    17    15    22 2
    18    15    12 1
    19    22    17 1
    20    12    21 1
    21    17    21 1
    22    17     2 1
    23    21    20 1
    24     9    20 1
    25     9    51 2
    26    20    16 1
    27     8    16 1
    28    16     1 1
    29     1    24 1
    30     1    25 1
    31     1    26 1
    32     2    27 1
    33     2    28 1
    34     2    29 1
    35     3    30 1
    36     3    31 1
    37     8    32 1
    38     9    33 1
    39    10    34 1
    40    10    35 1
    41    49    36 1
    42    49    37 1
    43    11    38 1
    44    11    39 1
    45    12    40 1
    46    13    41 1
    47    50    42 1
    48    16    43 1
    49    17    44 1
    50    18    45 1
    51    19    46 1
    52    20    47 1
    53    21    48 1
    54    52     3 1
@<TRIPOS>SUBSTRUCTURE
     1 4J6         1 TEMP              0 ****  ****    0 ROOT
