@<TRIPOS>MOLECULE
molecule
   68    72     1     0     0
SMALL
bcc


@<TRIPOS>ATOM
      1 C12          0.0000     0.0000     0.0000 ca         1 4J7      -0.059000
      2 C13          1.3810     0.0000     0.0000 ca         1 4J7      -0.079000
      3 O16         -2.7990     0.7220     0.0110 o          1 4J7      -0.600800
      4 C11         -0.6940    -0.0000     1.1960 ca         1 4J7      -0.266500
      5 C22         -7.1590    -2.0660     0.6400 ca         1 4J7      -0.038000
      6 C21         -6.5780    -2.0990     1.8930 ca         1 4J7      -0.197200
      7 C23         -6.3670    -1.9330    -0.4860 ca         1 4J7      -0.147000
      8 C24         -4.9940    -1.8280    -0.3580 ca         1 4J7      -0.043000
      9 C37          5.2750     4.8820    -2.9740 c3         1 4J7       0.126700
     10 C5           4.8440     2.6690    -2.2100 ca         1 4J7      -0.169500
     11 C4           5.8430     2.1690    -1.3760 ca         1 4J7       0.726200
     12 N29          7.1760     2.4970    -1.5970 nu         1 4J7      -0.739300
     13 C30          8.1550     2.0780    -0.6980 cc         1 4J7       0.142300
     14 N31          9.4660     2.4300    -0.7160 na         1 4J7      -0.072600
     15 N32         10.0960     1.7910     0.3580 nc         1 4J7      -0.509800
     16 C33          9.2040     1.0800     0.9980 cd         1 4J7       0.351600
     17 C35          9.4610     0.2340     2.2170 c3         1 4J7      -0.110400
     18 C34          7.9700     1.2430     0.3620 cd         1 4J7      -0.351300
     19 N3           5.5030     1.3750    -0.3630 nb         1 4J7      -0.762000
     20 C2           4.2350     1.0570    -0.1450 ca         1 4J7       0.806300
     21 C8           2.0750     0.0000     1.2030 ca         1 4J7      -0.011100
     22 C9           1.3740     0.0010     2.4060 ca         1 4J7       0.145900
     23 F14          2.0440     0.0010     3.5790 f          1 4J7      -0.122900
     24 C10         -0.0080    -0.0050     2.3980 ca         1 4J7      -0.073000
     25 S15         -2.4560     0.0080     1.1900 sy         1 4J7       1.192300
     26 O17         -2.8080     0.5020     2.4750 o          1 4J7      -0.600800
     27 C18         -2.9150    -1.7400     1.0320 c3         1 4J7      -0.153300
     28 C19         -4.4120    -1.8560     0.8940 ca         1 4J7      -0.140300
     29 O27         -8.6330    -2.3400     2.9850 o          1 4J7      -0.191000
     30 O28         -6.9130    -2.2760     4.2040 o          1 4J7      -0.191000
     31 C20         -5.2030    -1.9930     2.0220 ca         1 4J7       0.211900
     32 F25         -4.6340    -2.0270     3.2470 f          1 4J7      -0.089900
     33 N1           3.2600     1.5130    -0.9160 nb         1 4J7      -0.823000
     34 C6           3.5210     2.3170    -1.9440 ca         1 4J7       0.663200
     35 N38          2.4920     2.7950    -2.7450 nh         1 4J7      -0.706300
     36 C43          1.5800     3.6530    -1.9740 c3         1 4J7       0.128300
     37 C42          0.4970     4.2050    -2.9050 c3         1 4J7       0.138400
     38 O41         -0.1860     3.1150    -3.5320 os         1 4J7      -0.417600
     39 C40          0.6730     2.2590    -4.2920 c3         1 4J7       0.138400
     40 C39          1.7570     1.6880    -3.3740 c3         1 4J7       0.128300
     41 H1          -0.5410     0.0020    -0.9390 ha         1 4J7       0.154000
     42 H2           1.9230     0.0000    -0.9380 ha         1 4J7       0.174000
     43 H3          -8.2340    -2.1480     0.5390 ha         1 4J7       0.176000
     44 H4          -6.8230    -1.9090    -1.4680 ha         1 4J7       0.158000
     45 H5          -4.3750    -1.7230    -1.2410 ha         1 4J7       0.157000
     46 H6           4.5130     5.4280    -3.5180 h1         1 4J7       0.038700
     47 H7           5.1420     5.0410    -1.9110 h1         1 4J7       0.038700
     48 H8           6.2540     5.2350    -3.2730 h1         1 4J7       0.038700
     49 H9           7.4380     2.9900    -2.4280 hn         1 4J7       0.466800
     50 H10          9.9040     3.0400    -1.3790 hn         1 4J7       0.322700
     51 H11         10.5170     0.2590     2.4590 hc         1 4J7       0.050700
     52 H12          9.1610    -0.7880     2.0180 hc         1 4J7       0.050700
     53 H13          8.8910     0.6210     3.0530 hc         1 4J7       0.050700
     54 H14          7.0350     0.7820     0.6560 ha         1 4J7       0.199000
     55 H15         -0.5550    -0.0050     3.3330 ha         1 4J7       0.174000
     56 H16         -2.5920    -2.2790     1.9140 h1         1 4J7       0.114200
     57 H17         -2.4380    -2.1610     0.1560 h1         1 4J7       0.114200
     58 H18          2.1370     4.4750    -1.5420 h1         1 4J7       0.054700
     59 H19          1.1160     3.0710    -1.1870 h1         1 4J7       0.054700
     60 H20         -0.2100     4.7900    -2.3300 h1         1 4J7       0.057450
     61 H21          0.9570     4.8260    -3.6640 h1         1 4J7       0.057450
     62 H22          1.1370     2.8290    -5.0880 h1         1 4J7       0.057450
     63 H23          0.0920     1.4480    -4.7120 h1         1 4J7       0.057450
     64 H24          2.4430     1.0860    -3.9580 h1         1 4J7       0.054700
     65 H25          1.2950     1.0790    -2.6060 h1         1 4J7       0.054700
     66 S7           3.8360     0.0010     1.2070 ss         1 4J7      -0.131200
     67 N26         -7.4250    -2.2470     3.0980 no         1 4J7       0.297200
     68 O36          5.1530     3.4860    -3.2550 os         1 4J7      -0.327900
@<TRIPOS>BOND
     1     9    68 1   
     2    39    40 1   
     3    39    38 1   
     4    68    10 1   
     5    40    35 1   
     6    14    15 1   
     7    14    13 1   
     8    38    37 1   
     9    12    13 1   
    10    12    11 1   
    11    15    16 2   
    12    10    11 ar  
    13    10    34 ar  
    14    13    18 2   
    15    35    34 1   
    16    35    36 1   
    17    11    19 ar  
    18    37    36 1   
    19    34    33 ar  
    20    16    18 1   
    21    16    17 1   
    22    19    20 ar  
    23    33    20 ar  
    24    20    66 1   
    25     2     1 ar  
    26     2    21 ar  
    27    66    21 1   
    28     1     4 ar  
    29    21    22 ar  
    30     3    25 2   
    31     4    25 1   
    32     4    24 ar  
    33    22    24 ar  
    34    22    23 1   
    35    25    26 2   
    36    25    27 1   
    37    27    28 1   
    38    28     8 ar  
    39    28    31 ar  
    40     8     7 ar  
    41    32    31 1   
    42    31     6 ar  
    43     7     5 ar  
    44     6     5 ar  
    45     6    67 1   
    46    67    29 1   
    47    67    30 1   
    48     1    41 1   
    49     2    42 1   
    50     5    43 1   
    51     7    44 1   
    52     8    45 1   
    53     9    46 1   
    54     9    47 1   
    55     9    48 1   
    56    12    49 1   
    57    14    50 1   
    58    17    51 1   
    59    17    52 1   
    60    17    53 1   
    61    18    54 1   
    62    24    55 1   
    63    27    56 1   
    64    27    57 1   
    65    36    58 1   
    66    36    59 1   
    67    37    60 1   
    68    37    61 1   
    69    39    62 1   
    70    39    63 1   
    71    40    64 1   
    72    40    65 1   
@<TRIPOS>SUBSTRUCTURE
     1 4J7         1 TEMP              0 ****  ****    0 ROOT
