@<TRIPOS>MOLECULE
4J7
   68    72     1     0     0
SMALL
bcc


@<TRIPOS>ATOM
      1 C12          0.0000     0.0000     0.0000 ca         1 4J7      -0.021000
      2 C13          1.3810     0.0000     0.0000 ca         1 4J7      -0.085000
      3 O16         -2.7990     0.7220     0.0110 o          1 4J7      -0.572300
      4 C11         -0.6940    -0.0000     1.1960 ca         1 4J7      -0.124500
      5 C22         -7.1590    -2.0660     0.6400 ca         1 4J7       0.018000
      6 C21         -6.5780    -2.0990     1.8930 ca         1 4J7      -0.477200
      7 C23         -6.3670    -1.9330    -0.4860 ca         1 4J7      -0.126000
      8 C24         -4.9940    -1.8280    -0.3580 ca         1 4J7       0.000000
      9 C37          5.2750     4.8820    -2.9740 c3         1 4J7       0.243700
     10 C5           4.8440     2.6690    -2.2100 ca         1 4J7      -0.164500
     11 C4           5.8430     2.1690    -1.3760 ca         1 4J7       0.512200
     12 N29          7.1760     2.4970    -1.5970 nu         1 4J7      -0.242300
     13 C30          8.1550     2.0780    -0.6980 cc         1 4J7      -0.186700
     14 N31          9.4660     2.4300    -0.7160 na         1 4J7       0.413400
     15 N32         10.0960     1.7910     0.3580 nc         1 4J7      -0.655800
     16 C33          9.2040     1.0800     0.9980 cd         1 4J7       0.379600
     17 C35          9.4610     0.2340     2.2170 c3         1 4J7      -0.003400
     18 C34          7.9700     1.2430     0.3620 cd         1 4J7      -0.348300
     19 N3           5.5030     1.3750    -0.3630 nb         1 4J7      -0.629000
     20 C2           4.2350     1.0570    -0.1450 ca         1 4J7       0.781300
     21 C8           2.0750     0.0000     1.2030 ca         1 4J7       0.045900
     22 C9           1.3740     0.0010     2.4060 ca         1 4J7       0.126900
     23 F14          2.0440     0.0010     3.5790 f          1 4J7      -0.112900
     24 C10         -0.0080    -0.0050     2.3980 ca         1 4J7      -0.036000
     25 S15         -2.4560     0.0080     1.1900 sy         1 4J7       0.875300
     26 O17         -2.8080     0.5020     2.4750 o          1 4J7      -0.572300
     27 C18         -2.9150    -1.7400     1.0320 c3         1 4J7       0.064700
     28 C19         -4.4120    -1.8560     0.8940 ca         1 4J7      -0.138300
     29 O27         -8.6330    -2.3400     2.9850 o          1 4J7      -0.439000
     30 O28         -6.9130    -2.2760     4.2040 o          1 4J7      -0.439000
     31 C20         -5.2030    -1.9930     2.0220 ca         1 4J7       0.219900
     32 F25         -4.6340    -2.0270     3.2470 f          1 4J7      -0.091900
     33 N1           3.2600     1.5130    -0.9160 nb         1 4J7      -0.717000
     34 C6           3.5210     2.3170    -1.9440 ca         1 4J7       0.554200
     35 N38          2.4920     2.7950    -2.7450 nh         1 4J7      -0.502300
     36 C43          1.5800     3.6530    -1.9740 c3         1 4J7       0.106300
     37 C42          0.4970     4.2050    -2.9050 c3         1 4J7       0.215400
     38 O41         -0.1860     3.1150    -3.5320 os         1 4J7      -0.404600
     39 C40          0.6730     2.2590    -4.2920 c3         1 4J7       0.215400
     40 C39          1.7570     1.6880    -3.3740 c3         1 4J7       0.106300
     41 H1          -0.5410     0.0020    -0.9390 ha         1 4J7       0.126000
     42 H2           1.9230     0.0000    -0.9380 ha         1 4J7       0.152000
     43 H3          -8.2340    -2.1480     0.5390 ha         1 4J7       0.137000
     44 H4          -6.8230    -1.9090    -1.4680 ha         1 4J7       0.122000
     45 H5          -4.3750    -1.7230    -1.2410 ha         1 4J7       0.121000
     46 H6           4.5130     5.4280    -3.5180 h1         1 4J7      -0.004633
     47 H7           5.1420     5.0410    -1.9110 h1         1 4J7      -0.004633
     48 H8           6.2540     5.2350    -3.2730 h1         1 4J7      -0.004633
     49 H9           7.4380     2.9900    -2.4280 hn         1 4J7       0.289800
     50 H10          9.9040     3.0400    -1.3790 hn         1 4J7       0.144700
     51 H11         10.5170     0.2590     2.4590 hc         1 4J7       0.011367
     52 H12          9.1610    -0.7880     2.0180 hc         1 4J7       0.011367
     53 H13          8.8910     0.6210     3.0530 hc         1 4J7       0.011367
     54 H14          7.0350     0.7820     0.6560 ha         1 4J7       0.190000
     55 H15         -0.5550    -0.0050     3.3330 ha         1 4J7       0.147000
     56 H16         -2.5920    -2.2790     1.9140 h1         1 4J7       0.077200
     57 H17         -2.4380    -2.1610     0.1560 h1         1 4J7       0.077200
     58 H18          2.1370     4.4750    -1.5420 h1         1 4J7       0.025950
     59 H19          1.1160     3.0710    -1.1870 h1         1 4J7       0.025950
     60 H20         -0.2100     4.7900    -2.3300 h1         1 4J7       0.014950
     61 H21          0.9570     4.8260    -3.6640 h1         1 4J7       0.014950
     62 H22          1.1370     2.8290    -5.0880 h1         1 4J7       0.014950
     63 H23          0.0920     1.4480    -4.7120 h1         1 4J7       0.014950
     64 H24          2.4430     1.0860    -3.9580 h1         1 4J7       0.025950
     65 H25          1.2950     1.0790    -2.6060 h1         1 4J7       0.025950
     66 S7           3.8360     0.0010     1.2070 ss         1 4J7      -0.299200
     67 N26         -7.4250    -2.2470     3.0980 no         1 4J7       1.050200
     68 O36          5.1530     3.4860    -3.2550 os         1 4J7      -0.305900
@<TRIPOS>BOND
     1     1     2 ar  
     2     1     4 ar  
     3     1    41 1   
     4     2    21 ar  
     5     2    42 1   
     6     3    25 2   
     7     4    24 ar  
     8     4    25 1   
     9     5     6 ar  
    10     5     7 ar  
    11     5    43 1   
    12     6    31 ar  
    13     6    67 1   
    14     7     8 ar  
    15     7    44 1   
    16     8    28 ar  
    17     8    45 1   
    18     9    46 1   
    19     9    47 1   
    20     9    48 1   
    21     9    68 1   
    22    10    11 ar  
    23    10    34 ar  
    24    10    68 1   
    25    11    12 1   
    26    11    19 ar  
    27    12    13 1   
    28    12    49 1   
    29    13    14 1   
    30    13    18 2   
    31    14    15 1   
    32    14    50 1   
    33    15    16 2   
    34    16    17 1   
    35    16    18 1   
    36    17    51 1   
    37    17    52 1   
    38    17    53 1   
    39    18    54 1   
    40    19    20 ar  
    41    20    33 ar  
    42    20    66 1   
    43    21    22 ar  
    44    21    66 1   
    45    22    23 1   
    46    22    24 ar  
    47    24    55 1   
    48    25    26 2   
    49    25    27 1   
    50    27    28 1   
    51    27    56 1   
    52    27    57 1   
    53    28    31 ar  
    54    29    67 1   
    55    30    67 1   
    56    31    32 1   
    57    33    34 ar  
    58    34    35 1   
    59    35    36 1   
    60    35    40 1   
    61    36    37 1   
    62    36    58 1   
    63    36    59 1   
    64    37    38 1   
    65    37    60 1   
    66    37    61 1   
    67    38    39 1   
    68    39    40 1   
    69    39    62 1   
    70    39    63 1   
    71    40    64 1   
    72    40    65 1   
@<TRIPOS>SUBSTRUCTURE
     1 4J7         1 TEMP              0 ****  ****    0 ROOT
