@<TRIPOS>MOLECULE
4J8
   21    21     1     0     0
SMALL
bcc


@<TRIPOS>ATOM
      1 C1           0.0000     0.0000     0.0000 ca         1 4J8       0.023700
      2 C2           1.3830     0.0000     0.0000 ca         1 4J8      -0.111000
      3 C4           1.3820    -0.0010     2.3950 ca         1 4J8      -0.237500
      4 C6          -0.6920     0.0000     1.1970 ca         1 4J8      -0.111000
      5 O1           1.3810    -0.5460     4.8930 o          1 4J8      -0.495800
      6 S            2.2630    -0.0020     3.9210 sy         1 4J8       0.935200
      7 O            3.5460    -0.5460     3.6430 o          1 4J8      -0.495800
      8 N            2.5090     1.5810     4.3450 nz         1 4J8      -0.131500
      9 C3           2.0730     0.0000     1.1980 ca         1 4J8       0.017500
     10 C5          -0.0000    -0.0010     2.3950 ca         1 4J8       0.017500
     11 C           -0.7530     0.0080    -1.3050 c3         1 4J8       0.043200
     12 H1           1.9250     0.0000    -0.9380 ha         1 4J8       0.135000
     13 H2          -1.7750     0.0000     1.1970 ha         1 4J8       0.135000
     14 H3           3.0260     2.0430     3.6240 hn         1 4J8       0.313133
     15 H4           1.6250     2.0350     4.4650 hn         1 4J8       0.313133
     16 H5           3.1560    -0.0000     1.1980 ha         1 4J8       0.125000
     17 H6          -0.5420    -0.0010     3.3330 ha         1 4J8       0.125000
     18 H7          -0.6890     0.9920    -1.7530 hc         1 4J8       0.029033
     19 H8          -1.7920    -0.2390    -1.1240 hc         1 4J8       0.029033
     20 H9          -0.3200    -0.7240    -1.9760 hc         1 4J8       0.029033
     21 HN3          3.0140     1.6200     5.2080 hn         1 4J8       0.313133
@<TRIPOS>BOND
     1     1     2 ar  
     2     1     4 ar  
     3     1    11 1   
     4     2     9 ar  
     5     2    12 1   
     6     3     6 1   
     7     3     9 ar  
     8     3    10 ar  
     9     4    10 ar  
    10     4    13 1   
    11     5     6 2   
    12     6     7 2   
    13     6     8 1   
    14     8    14 1   
    15     8    15 1   
    16     8    21 1   
    17     9    16 1   
    18    10    17 1   
    19    11    18 1   
    20    11    19 1   
    21    11    20 1   
@<TRIPOS>SUBSTRUCTURE
     1 4J8         1 TEMP              0 ****  ****    0 ROOT
