@<TRIPOS>MOLECULE
molecule
   21    21     1     0     0
SMALL
bcc


@<TRIPOS>ATOM
      1 C1           0.0000     0.0000     0.0000 ca         1 4J8       0.024700
      2 C2           1.3830     0.0000     0.0000 ca         1 4J8      -0.133500
      3 C4           1.3820    -0.0010     2.3950 ca         1 4J8      -0.350500
      4 C6          -0.6920     0.0000     1.1970 ca         1 4J8      -0.133500
      5 O1           1.3810    -0.5460     4.8930 o          1 4J8      -0.519300
      6 S            2.2630    -0.0020     3.9210 sy         1 4J8       1.225200
      7 O            3.5460    -0.5460     3.6430 o          1 4J8      -0.519300
      8 N            2.5090     1.5810     4.3450 nz         1 4J8      -0.805500
      9 C3           2.0730     0.0000     1.1980 ca         1 4J8      -0.023500
     10 C5          -0.0000    -0.0010     2.3950 ca         1 4J8      -0.023500
     11 C           -0.7530     0.0080    -1.3050 c3         1 4J8      -0.069800
     12 H1           1.9250     0.0000    -0.9380 ha         1 4J8       0.167000
     13 H2          -1.7750     0.0000     1.1970 ha         1 4J8       0.167000
     14 H3           3.0260     2.0430     3.6240 hn         1 4J8       0.491467
     15 H4           1.6250     2.0350     4.4650 hn         1 4J8       0.491467
     16 H5           3.1560    -0.0000     1.1980 ha         1 4J8       0.155000
     17 H6          -0.5420    -0.0010     3.3330 ha         1 4J8       0.155000
     18 H7          -0.6890     0.9920    -1.7530 hc         1 4J8       0.070367
     19 H8          -1.7920    -0.2390    -1.1240 hc         1 4J8       0.070367
     20 H9          -0.3200    -0.7240    -1.9760 hc         1 4J8       0.070367
     21 HN3          3.0140     1.6200     5.2080 hn         1 4J8       0.491467
@<TRIPOS>BOND
     1    11     1 1   
     2     1     4 ar  
     3     1     2 ar  
     4     4    10 ar  
     5     2     9 ar  
     6    10     3 ar  
     7     9     3 ar  
     8     3     6 1   
     9     8     6 1   
    10     5     6 2   
    11     6     7 2   
    12     2    12 1   
    13     4    13 1   
    14     8    14 1   
    15     8    15 1   
    16     9    16 1   
    17    10    17 1   
    18    11    18 1   
    19    11    19 1   
    20    11    20 1   
    21    21     8 1   
@<TRIPOS>SUBSTRUCTURE
     1 4J8         1 TEMP              0 ****  ****    0 ROOT
