@<TRIPOS>MOLECULE
molecule
   24    24     1     0     0
SMALL
bcc


@<TRIPOS>ATOM
      1 O1           0.0000     0.0000     0.0000 o          1 4JC      -0.519800
      2 S            1.4210     0.0000     0.0000 sy         1 4JC       1.224200
      3 O            2.1990     0.0000     1.1900 o          1 4JC      -0.519800
      4 N            1.8880    -1.3340    -0.8630 nz         1 4JC      -0.806500
      5 C5           1.9190     1.4170    -0.9210 ca         1 4JC      -0.349500
      6 C4           1.0620     1.9730    -1.8520 ca         1 4JC      -0.024500
      7 C3           1.4520     3.0850    -2.5740 ca         1 4JC      -0.132000
      8 C6           3.1650     1.9770    -0.7080 ca         1 4JC      -0.024500
      9 C7           3.5550     3.0890    -1.4310 ca         1 4JC      -0.132000
     10 C2           2.7000     3.6400    -2.3660 ca         1 4JC       0.027700
     11 C1           3.1260     4.8520    -3.1540 c3         1 4JC      -0.060100
     12 C            2.7190     6.1200    -2.4000 c3         1 4JC      -0.087100
     13 H1           1.6310    -2.1620    -0.3630 hn         1 4JC       0.491467
     14 H2           2.8810    -1.3170    -0.9920 hn         1 4JC       0.491467
     15 H3           0.0830     1.5380    -2.0150 ha         1 4JC       0.155000
     16 H4           0.7810     3.5190    -3.3050 ha         1 4JC       0.166000
     17 H5           3.8350     1.5450     0.0250 ha         1 4JC       0.155000
     18 H6           4.5320     3.5260    -1.2660 ha         1 4JC       0.166000
     19 H7           4.2020     4.8390    -3.2830 hc         1 4JC       0.067200
     20 H8           2.6450     4.8390    -4.1240 hc         1 4JC       0.067200
     21 H9           3.3000     6.2010    -1.4890 hc         1 4JC       0.050367
     22 H10          2.9030     6.9860    -3.0240 hc         1 4JC       0.050367
     23 H11          1.6650     6.0700    -2.1530 hc         1 4JC       0.050367
     24 HN3          1.4240    -1.3370    -1.7490 hn         1 4JC       0.491467
@<TRIPOS>BOND
     1    12    11 1   
     2    11    10 1   
     3    10     7 ar  
     4    10     9 ar  
     5     7     6 ar  
     6     9     8 ar  
     7     6     5 ar  
     8     8     5 ar  
     9     5     2 1   
    10     3     2 2   
    11     2     1 2   
    12     2     4 1   
    13     4    13 1   
    14     4    14 1   
    15     6    15 1   
    16     7    16 1   
    17     8    17 1   
    18     9    18 1   
    19    11    19 1   
    20    11    20 1   
    21    12    21 1   
    22    12    22 1   
    23    12    23 1   
    24    24     4 1   
@<TRIPOS>SUBSTRUCTURE
     1 4JC         1 TEMP              0 ****  ****    0 ROOT
