@<TRIPOS>MOLECULE
4JC
   24    24     1     0     0
SMALL
bcc


@<TRIPOS>ATOM
      1 O1           0.0000     0.0000     0.0000 o          1 4JC      -0.495800
      2 S            1.4210     0.0000     0.0000 sy         1 4JC       0.934200
      3 O            2.1990     0.0000     1.1900 o          1 4JC      -0.495800
      4 N            1.8880    -1.3340    -0.8630 nz         1 4JC      -0.131500
      5 C5           1.9190     1.4170    -0.9210 ca         1 4JC      -0.236500
      6 C4           1.0620     1.9730    -1.8520 ca         1 4JC       0.015500
      7 C3           1.4520     3.0850    -2.5740 ca         1 4JC      -0.107000
      8 C6           3.1650     1.9770    -0.7080 ca         1 4JC       0.015500
      9 C7           3.5550     3.0890    -1.4310 ca         1 4JC      -0.107000
     10 C2           2.7000     3.6400    -2.3660 ca         1 4JC       0.024700
     11 C1           3.1260     4.8520    -3.1540 c3         1 4JC       0.007900
     12 C            2.7190     6.1200    -2.4000 c3         1 4JC       0.014900
     13 H1           1.6310    -2.1620    -0.3630 hn         1 4JC       0.313133
     14 H2           2.8810    -1.3170    -0.9920 hn         1 4JC       0.313133
     15 H3           0.0830     1.5380    -2.0150 ha         1 4JC       0.125000
     16 H4           0.7810     3.5190    -3.3050 ha         1 4JC       0.135000
     17 H5           3.8350     1.5450     0.0250 ha         1 4JC       0.125000
     18 H6           4.5320     3.5260    -1.2660 ha         1 4JC       0.135000
     19 H7           4.2020     4.8390    -3.2830 hc         1 4JC       0.031700
     20 H8           2.6450     4.8390    -4.1240 hc         1 4JC       0.031700
     21 H9           3.3000     6.2010    -1.4890 hc         1 4JC       0.013033
     22 H10          2.9030     6.9860    -3.0240 hc         1 4JC       0.013033
     23 H11          1.6650     6.0700    -2.1530 hc         1 4JC       0.013033
     24 HN3          1.4240    -1.3370    -1.7490 hn         1 4JC       0.313133
@<TRIPOS>BOND
     1     1     2 2   
     2     2     3 2   
     3     2     4 1   
     4     2     5 1   
     5     4    13 1   
     6     4    14 1   
     7     4    24 1   
     8     5     6 ar  
     9     5     8 ar  
    10     6     7 ar  
    11     6    15 1   
    12     7    10 ar  
    13     7    16 1   
    14     8     9 ar  
    15     8    17 1   
    16     9    10 ar  
    17     9    18 1   
    18    10    11 1   
    19    11    12 1   
    20    11    19 1   
    21    11    20 1   
    22    12    21 1   
    23    12    22 1   
    24    12    23 1   
@<TRIPOS>SUBSTRUCTURE
     1 4JC         1 TEMP              0 ****  ****    0 ROOT
