@<TRIPOS>MOLECULE
4JE
   27    27     1     0     0
SMALL
bcc


@<TRIPOS>ATOM
      1 C1           0.0000     0.0000     0.0000 c3         1 4JE      -0.019400
      2 C5           2.7240    -1.1970     3.3750 ca         1 4JE       0.015000
      3 C2           1.5290     0.0000     0.0000 c3         1 4JE       0.004900
      4 C8           2.2520     1.1970     2.0750 ca         1 4JE      -0.107000
      5 C3           2.0320     0.0000     1.4200 ca         1 4JE       0.025700
      6 O1           3.1760    -1.2500     6.2460 o          1 4JE      -0.495800
      7 O            3.1710     1.2490     6.2470 o          1 4JE      -0.495800
      8 N            5.2060     0.0030     5.6120 nz         1 4JE      -0.132500
      9 C6           2.9550     0.0000     4.0270 ca         1 4JE      -0.235500
     10 C4           2.2620    -1.1970     2.0720 ca         1 4JE      -0.107000
     11 C7           2.7180     1.1970     3.3770 ca         1 4JE       0.015000
     12 C           -0.5110    -0.0000    -1.4420 c3         1 4JE       0.008900
     13 H1          -0.3610    -0.8840     0.5110 hc         1 4JE       0.017700
     14 H2          -0.3610     0.8850     0.5110 hc         1 4JE       0.017700
     15 H3           2.9050    -2.1350     3.8860 ha         1 4JE       0.125000
     16 H4           1.8900    -0.8850    -0.5110 hc         1 4JE       0.033700
     17 H5           1.8900     0.8840    -0.5110 hc         1 4JE       0.033700
     18 H6           2.0670     2.1350     1.5660 ha         1 4JE       0.135000
     19 H7           5.5200    -0.8130     5.1260 hn         1 4JE       0.312467
     20 H8           5.5270     0.8210     5.1330 hn         1 4JE       0.312467
     21 H9           2.0820    -2.1350     1.5620 ha         1 4JE       0.135000
     22 H10          2.8950     2.1360     3.8890 ha         1 4JE       0.125000
     23 H11         -0.1510    -0.8850    -1.9530 hc         1 4JE       0.009700
     24 H12         -0.1510     0.8840    -1.9530 hc         1 4JE       0.009700
     25 H13         -1.5950    -0.0000    -1.4410 hc         1 4JE       0.009700
     26 S            3.5510     0.0000     5.6850 sy         1 4JE       0.934200
     27 HN3          5.5850     0.0070     6.5380 hn         1 4JE       0.312467
@<TRIPOS>BOND
     1     1     3 1   
     2     1    12 1   
     3     1    13 1   
     4     1    14 1   
     5     2     9 ar  
     6     2    10 ar  
     7     2    15 1   
     8     3     5 1   
     9     3    16 1   
    10     3    17 1   
    11     4     5 ar  
    12     4    11 ar  
    13     4    18 1   
    14     5    10 ar  
    15     6    26 2   
    16     7    26 2   
    17     8    19 1   
    18     8    20 1   
    19     8    26 1   
    20     8    27 1   
    21     9    11 ar  
    22     9    26 1   
    23    10    21 1   
    24    11    22 1   
    25    12    23 1   
    26    12    24 1   
    27    12    25 1   
@<TRIPOS>SUBSTRUCTURE
     1 4JE         1 TEMP              0 ****  ****    0 ROOT
