@<TRIPOS>MOLECULE
molecule
   27    27     1     0     0
SMALL
bcc


@<TRIPOS>ATOM
      1 C1           0.0000     0.0000     0.0000 c3         1 4JE      -0.078400
      2 C5           2.7240    -1.1970     3.3750 ca         1 4JE      -0.025000
      3 C2           1.5290     0.0000     0.0000 c3         1 4JE      -0.059100
      4 C8           2.2520     1.1970     2.0750 ca         1 4JE      -0.132000
      5 C3           2.0320     0.0000     1.4200 ca         1 4JE       0.027700
      6 O1           3.1760    -1.2500     6.2460 o          1 4JE      -0.519800
      7 O            3.1710     1.2490     6.2470 o          1 4JE      -0.519800
      8 N            5.2060     0.0030     5.6120 nz         1 4JE      -0.805500
      9 C6           2.9550     0.0000     4.0270 ca         1 4JE      -0.349500
     10 C4           2.2620    -1.1970     2.0720 ca         1 4JE      -0.132000
     11 C7           2.7180     1.1970     3.3770 ca         1 4JE      -0.025000
     12 C           -0.5110    -0.0000    -1.4420 c3         1 4JE      -0.092100
     13 H1          -0.3610    -0.8840     0.5110 hc         1 4JE       0.049700
     14 H2          -0.3610     0.8850     0.5110 hc         1 4JE       0.049700
     15 H3           2.9050    -2.1350     3.8860 ha         1 4JE       0.155000
     16 H4           1.8900    -0.8850    -0.5110 hc         1 4JE       0.067700
     17 H5           1.8900     0.8840    -0.5110 hc         1 4JE       0.067700
     18 H6           2.0670     2.1350     1.5660 ha         1 4JE       0.166000
     19 H7           5.5200    -0.8130     5.1260 hn         1 4JE       0.491133
     20 H8           5.5270     0.8210     5.1330 hn         1 4JE       0.491133
     21 H9           2.0820    -2.1350     1.5620 ha         1 4JE       0.166000
     22 H10          2.8950     2.1360     3.8890 ha         1 4JE       0.155000
     23 H11         -0.1510    -0.8850    -1.9530 hc         1 4JE       0.044700
     24 H12         -0.1510     0.8840    -1.9530 hc         1 4JE       0.044700
     25 H13         -1.5950    -0.0000    -1.4410 hc         1 4JE       0.044700
     26 S            3.5510     0.0000     5.6850 sy         1 4JE       1.225200
     27 HN3          5.5850     0.0070     6.5380 hn         1 4JE       0.491133
@<TRIPOS>BOND
     1    12     1 1
     2     1     3 1
     3     3     5 1
     4     5    10 ar
     5     5     4 ar
     6    10     2 ar
     7     4    11 ar
     8     2     9 ar
     9    11     9 ar
    10     9    26 1
    11     6    26 2
    12    26     7 2
    13    26     8 1
    14     1    13 1
    15     1    14 1
    16     2    15 1
    17     3    16 1
    18     3    17 1
    19     4    18 1
    20     8    19 1
    21     8    20 1
    22    10    21 1
    23    11    22 1
    24    12    23 1
    25    12    24 1
    26    12    25 1
    27    27     8 1
@<TRIPOS>SUBSTRUCTURE
     1 4JE         1 TEMP              0 ****  ****    0 ROOT
