@<TRIPOS>MOLECULE
4JG
   34    36     1     0     0
SMALL
bcc


@<TRIPOS>ATOM
      1 O3           0.0000     0.0000     0.0000 o          1 4JG      -0.582100
      2 C1           1.2150     0.0000     0.0000 c          1 4JG       0.672700
      3 C2           1.9680     0.0000     1.3060 c3         1 4JG      -0.092100
      4 C4           1.9190    -0.0040    -1.2180 cc         1 4JG      -0.283000
      5 C8           1.3640    -0.0050    -2.4760 cd         1 4JG       0.482600
      6 C9          -0.1230    -0.0050    -2.7160 c3         1 4JG      -0.030400
      7 N7           2.2420    -0.0040    -3.4420 nd         1 4JG      -0.670000
      8 C6           3.5020    -0.0040    -3.1070 cc         1 4JG       0.565300
      9 S5           3.6720    -0.0030    -1.4060 ss         1 4JG      -0.309300
     10 N10          4.5510    -0.0030    -4.0000 nu         1 4JG      -0.231300
     11 C11          4.3020    -0.1280    -5.3690 ca         1 4JG      -0.036400
     12 C16          3.2160    -0.8570    -5.8020 ca         1 4JG      -0.077000
     13 C15          2.9700    -0.9800    -7.1790 ca         1 4JG      -0.020000
     14 C20          1.8710    -1.7140    -7.6590 ca         1 4JG      -0.085000
     15 C19          1.6620    -1.8120    -9.0000 ca         1 4JG      -0.097000
     16 C18          2.5210    -1.1940    -9.9080 ca         1 4JG      -0.099000
     17 C17          3.5940    -0.4760    -9.4790 ca         1 4JG      -0.087000
     18 C14          3.8440    -0.3500    -8.1020 ca         1 4JG      -0.044000
     19 C13          4.9430     0.3860    -7.6250 ca         1 4JG      -0.066000
     20 C12          5.1570     0.4940    -6.2880 ca         1 4JG      -0.121000
     21 H1           2.5940     0.8830     1.3620 hc         1 4JG       0.026033
     22 H2           2.5890    -0.8860     1.3650 hc         1 4JG       0.026033
     23 H3           1.2640     0.0030     2.1290 hc         1 4JG       0.026033
     24 H4          -0.3170     0.0410    -3.7810 hc         1 4JG       0.026033
     25 H5          -0.5670     0.8560    -2.2310 hc         1 4JG       0.026033
     26 H6          -0.5550    -0.9110    -2.3090 hc         1 4JG       0.026033
     27 H7           5.4930     0.0490    -3.6650 hn         1 4JG       0.288800
     28 H8           2.6370    -1.4370    -5.0940 ha         1 4JG       0.136000
     29 H9           1.1960    -2.2000    -6.9660 ha         1 4JG       0.109000
     30 H10          0.8150    -2.3790    -9.3680 ha         1 4JG       0.102000
     31 H11          2.3320    -1.2880   -10.9710 ha         1 4JG       0.102000
     32 H12          4.2520    -0.0010   -10.1960 ha         1 4JG       0.105000
     33 H13          5.6130     0.8730    -8.3230 ha         1 4JG       0.107000
     34 H14          6.0010     1.0700    -5.9270 ha         1 4JG       0.104000
@<TRIPOS>BOND
     1     1     2 2   
     2     2     3 1   
     3     2     4 1   
     4     3    21 1   
     5     3    22 1   
     6     3    23 1   
     7     4     5 2   
     8     4     9 1   
     9     5     6 1   
    10     5     7 1   
    11     6    24 1   
    12     6    25 1   
    13     6    26 1   
    14     7     8 2   
    15     8     9 1   
    16     8    10 1   
    17    10    11 1   
    18    10    27 1   
    19    11    12 ar  
    20    11    20 ar  
    21    12    13 ar  
    22    12    28 1   
    23    13    14 ar  
    24    13    18 ar  
    25    14    15 ar  
    26    14    29 1   
    27    15    16 ar  
    28    15    30 1   
    29    16    17 ar  
    30    16    31 1   
    31    17    18 ar  
    32    17    32 1   
    33    18    19 ar  
    34    19    20 ar  
    35    19    33 1   
    36    20    34 1   
@<TRIPOS>SUBSTRUCTURE
     1 4JG         1 TEMP              0 ****  ****    0 ROOT
