@<TRIPOS>MOLECULE
4JH
   18    18     1     0     0
SMALL
bcc


@<TRIPOS>ATOM
      1 C1           0.0000     0.0000     0.0000 ca         1 4JH      -0.212300
      2 C2           1.3830     0.0000     0.0000 ca         1 4JH      -0.064000
      3 C3           2.0750     0.0000     1.1960 ca         1 4JH      -0.073000
      4 C4           1.3840     0.0000     2.3940 ca         1 4JH      -0.019000
      5 C5           0.0000     0.0000     2.3940 ca         1 4JH       0.015100
      6 C6          -0.6910    -0.0000     1.1960 ca         1 4JH      -0.051000
      7 Br          -0.9450     0.0000     4.0330 br         1 4JH      -0.043100
      8 C           -0.7530     0.0050    -1.3050 c3         1 4JH       0.040100
      9 N           -0.9980    -1.3780    -1.7360 nz         1 4JH       0.074400
     10 H1           1.9240    -0.0000    -0.9380 ha         1 4JH       0.110000
     11 H2           3.1580     0.0000     1.1950 ha         1 4JH       0.130000
     12 H3           1.9260     0.0000     3.3330 ha         1 4JH       0.136000
     13 H4          -1.7750    -0.0000     1.1960 ha         1 4JH       0.119000
     14 H5          -1.6990     0.5150    -1.1740 hx         1 4JH       0.082700
     15 H6          -0.1670     0.5190    -2.0580 hx         1 4JH       0.082700
     16 H7          -0.1370    -1.7910    -2.0350 hn         1 4JH       0.223467
     17 H8          -1.3730    -1.9040    -0.9720 hn         1 4JH       0.223467
     18 HN3         -1.6510    -1.3800    -2.4940 hn         1 4JH       0.223467
@<TRIPOS>BOND
     1     1     2 ar  
     2     1     6 ar  
     3     1     8 1   
     4     2     3 ar  
     5     2    10 1   
     6     3     4 ar  
     7     3    11 1   
     8     4     5 ar  
     9     4    12 1   
    10     5     6 ar  
    11     5     7 1   
    12     6    13 1   
    13     8     9 1   
    14     8    14 1   
    15     8    15 1   
    16     9    16 1   
    17     9    17 1   
    18     9    18 1   
@<TRIPOS>SUBSTRUCTURE
     1 4JH         1 TEMP              0 ****  ****    0 ROOT
