@<TRIPOS>MOLECULE
4JJ
   16    16     1     0     0
SMALL
bcc


@<TRIPOS>ATOM
      1 C1           0.0000     0.0000     0.0000 ca         1 4JJ      -0.102000
      2 C2           1.3840     0.0000     0.0000 ca         1 4JJ      -0.099000
      3 C3           2.0790     0.0000     1.1970 ca         1 4JJ      -0.030600
      4 C4           1.3930    -0.0010     2.3990 ca         1 4JJ      -0.112000
      5 C5           0.0070    -0.0010     2.4070 ca         1 4JJ       0.031600
      6 Cl           3.8150    -0.0000     1.1890 cl         1 4JJ      -0.034400
      7 N1          -0.6880    -0.0020     3.6210 nv         1 4JJ      -0.552200
      8 C           -0.6930     0.0050     1.1990 ca         1 4JJ       0.021600
      9 N           -2.0940     0.0050     1.2010 nv         1 4JJ      -0.554200
     10 H1          -0.5410     0.0020    -0.9380 ha         1 4JJ       0.110000
     11 H2           1.9240    -0.0020    -0.9390 ha         1 4JJ       0.113000
     12 H3           1.9400    -0.0010     3.3340 ha         1 4JJ       0.118000
     13 H4          -0.9190     0.8640     4.0660 hn         1 4JJ       0.272800
     14 H5          -0.9210    -0.8690     4.0640 hn         1 4JJ       0.272800
     15 H6          -2.5940    -0.8620     1.1820 hn         1 4JJ       0.272800
     16 H7          -2.5940     0.8720     1.1850 hn         1 4JJ       0.272800
@<TRIPOS>BOND
     1     1     2 ar  
     2     1     8 ar  
     3     1    10 1   
     4     2     3 ar  
     5     2    11 1   
     6     3     4 ar  
     7     3     6 1   
     8     4     5 ar  
     9     4    12 1   
    10     5     7 1   
    11     5     8 ar  
    12     7    13 1   
    13     7    14 1   
    14     8     9 1   
    15     9    15 1   
    16     9    16 1   
@<TRIPOS>SUBSTRUCTURE
     1 4JJ         1 TEMP              0 ****  ****    0 ROOT
