@<TRIPOS>MOLECULE
4JK
   28    27     1     0     0
SMALL
bcc


@<TRIPOS>ATOM
      1 CH           0.0000     0.0000     0.0000 c3         1 4JK       0.165100
      2 CZ           1.5070     0.0000     0.0000 c2         1 4JK       0.423200
      3 NH           2.1540     0.0000     1.1190 n2         1 4JK      -0.746100
      4 NE           2.1910     0.0000    -1.1880 nu         1 4JK      -0.491200
      5 CD           3.6560     0.0010    -1.1880 c3         1 4JK       0.183800
      6 CG           4.1660     0.0010    -2.6300 c3         1 4JK      -0.061400
      7 CB           5.6960     0.0010    -2.6320 c3         1 4JK      -0.015400
      8 CA           6.2050     0.0010    -4.0740 c3         1 4JK      -0.204500
      9 C            7.7070     0.1250    -4.0770 c          1 4JK       0.957600
     10 OA2          8.2810     1.3270    -3.9090 o          1 4JK      -0.816800
     11 OA1          8.3930    -0.8570    -4.2300 o          1 4JK      -0.816800
     12 N            5.8160    -1.2540    -4.7310 nz         1 4JK       0.080400
     13 OH          -0.4760    -0.0010     1.3470 oh         1 4JK      -0.587800
     14 HH1C        -0.3610     0.8850    -0.5100 h1         1 4JK      -0.005800
     15 HH2C        -0.3610    -0.8840    -0.5110 h1         1 4JK      -0.005800
     16 HH          -1.4190    -0.0010     1.3480 ho         1 4JK       0.402000
     17 HA           1.6540    -0.0000     1.9860 hn         1 4JK       0.349400
     18 HD1          4.0180     0.8850    -0.6780 h1         1 4JK       0.033200
     19 HD2          4.0180    -0.8840    -0.6780 h1         1 4JK       0.033200
     20 HNE          1.6900     0.0260    -2.0540 hn         1 4JK       0.280800
     21 HG1C         3.8040    -0.8840    -3.1410 hc         1 4JK       0.003200
     22 HG2C         3.8040     0.8850    -3.1410 hc         1 4JK       0.003200
     23 HB1C         6.0570     0.8860    -2.1220 hc         1 4JK       0.058700
     24 HB2C         6.0580    -0.8830    -2.1210 hc         1 4JK       0.058700
     25 HB           5.7730     0.8370    -4.6100 hx         1 4JK       0.086700
     26 HN1          5.8910    -2.0090    -4.0790 hn         1 4JK       0.210800
     27 HN2          6.4210    -1.4240    -5.5100 hn         1 4JK       0.210800
     28 HN3          4.8710    -1.1840    -5.0520 hn         1 4JK       0.210800
@<TRIPOS>BOND
     1     1     2 1   
     2     1    13 1   
     3     1    14 1   
     4     1    15 1   
     5     2     3 2   
     6     2     4 1   
     7     3    17 1   
     8     4     5 1   
     9     4    20 1   
    10     5     6 1   
    11     5    18 1   
    12     5    19 1   
    13     6     7 1   
    14     6    21 1   
    15     6    22 1   
    16     7     8 1   
    17     7    23 1   
    18     7    24 1   
    19     8     9 1   
    20     8    12 1   
    21     8    25 1   
    22     9    10 1   
    23     9    11 1   
    24    12    26 1   
    25    12    27 1   
    26    12    28 1   
    27    13    16 1   
@<TRIPOS>SUBSTRUCTURE
     1 4JK         1 TEMP              0 ****  ****    0 ROOT
