@<TRIPOS>MOLECULE
4JL
   16    16     1     0     0
SMALL
bcc


@<TRIPOS>ATOM
      1 CL          0.0250    0.1400   -0.0640 cl        1 4JL     -0.097400
      2 C4          1.7230    0.0460   -0.0060 ca        1 4JL      0.017400
      3 C3          2.3970    0.4090    1.1650 ca        1 4JL     -0.126000
      4 C2          3.7860    0.3310    1.2080 ca        1 4JL     -0.109000
      5 C5          2.4320   -0.3940   -1.1270 ca        1 4JL     -0.126000
      6 C6          3.8240   -0.4690   -1.0750 ca        1 4JL     -0.109000
      7 C1          4.5060   -0.1080    0.0890 ca        1 4JL     -0.088300
      8 C           5.9950   -0.1750    0.1840 c3        1 4JL      0.176700
      9 O           6.5290   -0.6460   -1.0450 oh        1 4JL     -0.598800
     10 H1          1.8350    0.7550    2.0450 ha        1 4JL      0.147000
     11 H2          4.3200    0.6160    2.1270 ha        1 4JL      0.146500
     12 H3          1.9000   -0.6790   -2.0470 ha        1 4JL      0.147000
     13 H4          4.3910   -0.8140   -1.9540 ha        1 4JL      0.146500
     14 H5          6.2910   -0.8720    1.0170 h1        1 4JL      0.033700
     15 H6          6.4070    0.8490    0.4070 h1        1 4JL      0.033700
     16 H7          7.4860   -0.6700   -0.9300 ho        1 4JL      0.405000
@<TRIPOS>BOND
     1    1    2 1   
     2    2    3 ar  
     3    2    5 ar  
     4    3    4 ar  
     5    3   10 1   
     6    4    7 ar  
     7    4   11 1   
     8    5    6 ar  
     9    5   12 1   
    10    6    7 ar  
    11    6   13 1   
    12    7    8 1   
    13    8    9 1   
    14    8   14 1   
    15    8   15 1   
    16    9   16 1   
@<TRIPOS>SUBSTRUCTURE
     1 4JL         1 TEMP              0 ****  ****    0 ROOT
