@<TRIPOS>MOLECULE
molecule
   16    16     1     0     0
SMALL
bcc


@<TRIPOS>ATOM
      1 Cl           0.0000     0.0000     0.0000 cl         1 4JL      -0.110400
      2 C4           1.7360     0.0000     0.0000 ca         1 4JL       0.034400
      3 C3           2.4280     0.0000     1.1980 ca         1 4JL      -0.125000
      4 C2           3.8100     0.0010     1.1970 ca         1 4JL      -0.098000
      5 C5           2.4280    -0.0050    -1.1980 ca         1 4JL      -0.125000
      6 C6           3.8100    -0.0050    -1.1980 ca         1 4JL      -0.098000
      7 C1           4.5000     0.0010    -0.0010 ca         1 4JL      -0.086300
      8 C            6.0080     0.0020    -0.0000 c3         1 4JL       0.187700
      9 O            6.4850    -1.3440    -0.0010 oh         1 4JL      -0.602800
     10 H1           1.8870    -0.0000     2.1360 ha         1 4JL       0.145000
     11 H2           4.3520     0.0030     2.1350 ha         1 4JL       0.139000
     12 H3           1.8860    -0.0100    -2.1370 ha         1 4JL       0.145000
     13 H4           4.3510    -0.0070    -2.1360 ha         1 4JL       0.139000
     14 H5           6.3690     0.5130     0.8840 h1         1 4JL       0.026700
     15 H6           6.3690     0.5130    -0.8850 h1         1 4JL       0.026700
     16 H7           7.4280    -1.3430    -0.0010 ho         1 4JL       0.403000
@<TRIPOS>BOND
     1     1     2 1
     2     3     2 ar
     3     3     4 ar
     4     2     5 ar
     5     4     7 ar
     6     5     6 ar
     7     7     6 ar
     8     7     8 1
     9     8     9 1
    10     3    10 1
    11     4    11 1
    12     5    12 1
    13     6    13 1
    14     8    14 1
    15     8    15 1
    16     9    16 1
@<TRIPOS>SUBSTRUCTURE
     1 4JL         1 TEMP              0 ****  ****    0 ROOT
