@<TRIPOS>MOLECULE
4JM
   18    18     1     0     0
SMALL
bcc


@<TRIPOS>ATOM
      1 C1           0.0000     0.0000     0.0000 ca         1 4JM       0.052900
      2 C2           1.3890     0.0000     0.0000 ca         1 4JM      -0.095500
      3 C3           2.0790     0.0000     1.1960 ca         1 4JM      -0.100000
      4 C4           1.3860    -0.0010     2.3990 ca         1 4JM       0.026600
      5 C5          -0.0030    -0.0000     2.3990 ca         1 4JM      -0.100000
      6 C6          -0.6940     0.0060     1.2040 ca         1 4JM      -0.095500
      7 N            2.0860    -0.0010     3.6110 nv         1 4JM      -0.562200
      8 S           -0.8820     0.0000    -1.5250 ss         1 4JM      -0.336000
      9 C           -2.6160    -0.0010    -0.9940 c3         1 4JM       0.108000
     10 H1           1.9300    -0.0020    -0.9380 ha         1 4JM       0.114500
     11 H2           3.1630    -0.0000     1.1950 ha         1 4JM       0.109000
     12 H3          -0.5440     0.0020     3.3370 ha         1 4JM       0.109000
     13 H4          -1.7780     0.0060     1.2050 ha         1 4JM       0.114500
     14 H5           2.3360     0.8660     4.0440 hn         1 4JM       0.273800
     15 H6           2.3360    -0.8680     4.0450 hn         1 4JM       0.273800
     16 H7          -2.8130     0.8850    -0.4020 h1         1 4JM       0.036033
     17 H8          -2.8110    -0.8840    -0.3990 h1         1 4JM       0.036033
     18 H9          -3.2600    -0.0030    -1.8650 h1         1 4JM       0.036033
@<TRIPOS>BOND
     1     1     2 ar  
     2     1     6 ar  
     3     1     8 1   
     4     2     3 ar  
     5     2    10 1   
     6     3     4 ar  
     7     3    11 1   
     8     4     5 ar  
     9     4     7 1   
    10     5     6 ar  
    11     5    12 1   
    12     6    13 1   
    13     7    14 1   
    14     7    15 1   
    15     8     9 1   
    16     9    16 1   
    17     9    17 1   
    18     9    18 1   
@<TRIPOS>SUBSTRUCTURE
     1 4JM         1 TEMP              0 ****  ****    0 ROOT
