@<TRIPOS>MOLECULE
molecule
   13    13     1     0     0
SMALL
bcc


@<TRIPOS>ATOM
      1 C2           0.0000     0.0000     0.0000 ca         1 4JN      -0.218300
      2 C3           1.3840     0.0000     0.0000 ca         1 4JN       0.471500
      3 C4           1.4570     0.0000     2.3040 ca         1 4JN       0.407200
      4 N1           2.0620     0.0000     1.1320 nb         1 4JN      -0.664000
      5 C1          -0.6760     0.0000     1.2090 ca         1 4JN      -0.112000
      6 Br           2.3160    -0.0000    -1.6450 br         1 4JN      -0.148200
      7 C            0.0700     0.0000     2.3850 ca         1 4JN       0.052300
      8 N           -0.5670    -0.0000     3.6290 nv         1 4JN      -0.988200
      9 H1          -0.5480    -0.0000    -0.9340 ha         1 4JN       0.150000
     10 H2           2.0470    -0.0000     3.2120 h4         1 4JN       0.034100
     11 H3          -1.7590    -0.0000     1.2390 ha         1 4JN       0.149000
     12 H4          -0.7930    -0.8670     4.0760 hn         1 4JN       0.432800
     13 H5          -0.7930     0.8670     4.0760 hn         1 4JN       0.432800
@<TRIPOS>BOND
     1     6     2 1
     2     1     2 ar
     3     1     5 ar
     4     2     4 ar
     5     5     7 ar
     6     4     3 ar
     7     7     3 ar
     8     7     8 1
     9     1     9 1
    10     3    10 1
    11     5    11 1
    12     8    12 1
    13     8    13 1
@<TRIPOS>SUBSTRUCTURE
     1 4JN         1 TEMP              0 ****  ****    0 ROOT
