@<TRIPOS>MOLECULE
molecule
   16    16     1     0     0
SMALL
bcc


@<TRIPOS>ATOM
      1 Br           0.0000     0.0000     0.0000 br         1 4JO      -0.088100
      2 C5           1.8910     0.0000     0.0000 ca         1 4JO      -0.158200
      3 C1           2.5880     0.0000     1.1930 ca         1 4JO       0.468600
      4 C            1.8330     0.0010     2.4970 c3         1 4JO      -0.149400
      5 C4           2.5930    -0.0060    -1.1980 ca         1 4JO      -0.063000
      6 C3           3.9760    -0.0050    -1.1530 ca         1 4JO      -0.265300
      7 C2           4.6130     0.0010     0.0840 ca         1 4JO       0.694200
      8 N            3.9080     0.0000     1.2050 nb         1 4JO      -0.710000
      9 N1           6.0010     0.0010     0.1430 nv         1 4JO      -1.084500
     10 H1           1.2110     0.8860     2.5530 hc         1 4JO       0.060033
     11 H2           1.2090    -0.8830     2.5540 hc         1 4JO       0.060033
     12 H3           2.5360     0.0010     3.3210 hc         1 4JO       0.060033
     13 H4           2.0700    -0.0110    -2.1470 ha         1 4JO       0.150000
     14 H5           4.5550    -0.0070    -2.0680 ha         1 4JO       0.148000
     15 H6           6.5000     0.8680     0.1760 hn         1 4JO       0.438800
     16 H7           6.5000    -0.8650     0.1820 hn         1 4JO       0.438800
@<TRIPOS>BOND
     1     4     3 1   
     2     8     3 ar  
     3     8     7 ar  
     4     3     2 ar  
     5     9     7 1   
     6     7     6 ar  
     7     2     1 1   
     8     2     5 ar  
     9     6     5 ar  
    10     4    10 1   
    11     4    11 1   
    12     4    12 1   
    13     5    13 1   
    14     6    14 1   
    15     9    15 1   
    16     9    16 1   
@<TRIPOS>SUBSTRUCTURE
     1 4JO         1 TEMP              0 ****  ****    0 ROOT
