@<TRIPOS>MOLECULE
4JO
   16    16     1     0     0
SMALL
bcc


@<TRIPOS>ATOM
      1 Br           0.0000     0.0000     0.0000 br         1 4JO      -0.111100
      2 C5           1.8910     0.0000     0.0000 ca         1 4JO      -0.098200
      3 C1           2.5880     0.0000     1.1930 ca         1 4JO       0.407600
      4 C            1.8330     0.0010     2.4970 c3         1 4JO      -0.052400
      5 C4           2.5930    -0.0060    -1.1980 ca         1 4JO      -0.044000
      6 C3           3.9760    -0.0050    -1.1530 ca         1 4JO      -0.229300
      7 C2           4.6130     0.0010     0.0840 ca         1 4JO       0.507200
      8 N            3.9080     0.0000     1.2050 nb         1 4JO      -0.582000
      9 N1           6.0010     0.0010     0.1430 nv         1 4JO      -0.659500
     10 H1           1.2110     0.8860     2.5530 hc         1 4JO       0.020700
     11 H2           1.2090    -0.8830     2.5540 hc         1 4JO       0.020700
     12 H3           2.5360     0.0010     3.3210 hc         1 4JO       0.020700
     13 H4           2.0700    -0.0110    -2.1470 ha         1 4JO       0.119000
     14 H5           4.5550    -0.0070    -2.0680 ha         1 4JO       0.121000
     15 H6           6.5000     0.8680     0.1760 hn         1 4JO       0.277800
     16 H7           6.5000    -0.8650     0.1820 hn         1 4JO       0.277800
@<TRIPOS>BOND
     1     1     2 1   
     2     2     3 ar  
     3     2     5 ar  
     4     3     4 1   
     5     3     8 ar  
     6     4    10 1   
     7     4    11 1   
     8     4    12 1   
     9     5     6 ar  
    10     5    13 1   
    11     6     7 ar  
    12     6    14 1   
    13     7     8 ar  
    14     7     9 1   
    15     9    15 1   
    16     9    16 1   
@<TRIPOS>SUBSTRUCTURE
     1 4JO         1 TEMP              0 ****  ****    0 ROOT
