@<TRIPOS>MOLECULE
4JP
   15    16     1     0     0
SMALL
bcc


@<TRIPOS>ATOM
      1 C01         0.0200   -0.0000   -0.0160 ca        1 4JP     -0.233300
      2 C02         1.4060   -0.0000   -0.0350 ca        1 4JP     -0.106000
      3 C03         2.0540   -0.0000    1.2100 ca        1 4JP     -0.163500
      4 C04         1.2570   -0.0000    2.4350 ca        1 4JP      0.402100
      5 C05         2.2090   -0.0000    3.5320 cc        1 4JP     -0.291800
      6 C06         3.4800    0.0000    2.9670 cd        1 4JP     -0.102100
      7 N07         3.3990    0.0000    1.5710 na        1 4JP     -0.188400
      8 N08        -0.0970   -0.0000    2.4280 nb        1 4JP     -0.620000
      9 C09        -0.6760   -0.0000    1.2230 ca        1 4JP      0.372200
     10 H1         -0.5520    0.0000   -0.9530 ha        1 4JP      0.140000
     11 H2          1.9700   -0.0000   -0.9770 ha        1 4JP      0.135000
     12 H3          1.9570   -0.0000    4.5880 ha        1 4JP      0.169000
     13 H4          4.4540    0.0000    3.4610 h4        1 4JP      0.167000
     14 H5          4.1590    0.0000    0.9460 hn        1 4JP      0.300700
     15 H6         -1.7810    0.0000    1.2280 h4        1 4JP      0.019100
@<TRIPOS>BOND
     1    1    2 ar  
     2    1    9 ar  
     3    1   10 1   
     4    2    3 ar  
     5    2   11 1   
     6    3    4 ar  
     7    3    7 1   
     8    4    5 1   
     9    4    8 ar  
    10    5    6 2   
    11    5   12 1   
    12    6    7 1   
    13    6   13 1   
    14    7   14 1   
    15    8    9 ar  
    16    9   15 1   
@<TRIPOS>SUBSTRUCTURE
     1 4JP         1 TEMP              0 ****  ****    0 ROOT
