@<TRIPOS>MOLECULE
molecule
   15    16     1     0     0
SMALL
bcc


@<TRIPOS>ATOM
      1 C01          0.0000     0.0000     0.0000 ca         1 4JP      -0.238300
      2 C02          1.3830     0.0000     0.0000 ca         1 4JP      -0.110000
      3 C03          2.0430     0.0000     1.2260 ca         1 4JP      -0.160500
      4 C04          1.2810     0.0000     2.4090 ca         1 4JP       0.422100
      5 C05          2.2500    -0.0000     3.5080 cc         1 4JP      -0.303800
      6 C06          3.4730    -0.0000     2.9540 cd         1 4JP      -0.095100
      7 N07          3.3690    -0.0000     1.5920 na         1 4JP      -0.182400
      8 N08         -0.0470     0.0000     2.3550 nb         1 4JP      -0.651000
      9 C09         -0.6860     0.0000     1.2050 ca         1 4JP       0.398200
     10 H1          -0.5440     0.0000    -0.9370 ha         1 4JP       0.137000
     11 H2           1.9390    -0.0000    -0.9300 ha         1 4JP       0.131000
     12 H3           2.0220    -0.0000     4.5670 ha         1 4JP       0.165000
     13 H4           4.4060    -0.0000     3.5050 h4         1 4JP       0.168000
     14 H5           4.1420    -0.0000     0.9550 hn         1 4JP       0.296700
     15 H6          -1.7700     0.0000     1.1990 h4         1 4JP       0.022100
@<TRIPOS>BOND
     1     7     3 1
     2     7     6 1
     3     2     3 ar
     4     2     1 ar
     5     3     4 ar
     6     6     5 2
     7     1     9 ar
     8     4     5 1
     9     4     8 ar
    10     9     8 ar
    11     1    10 1
    12     2    11 1
    13     5    12 1
    14     6    13 1
    15     7    14 1
    16     9    15 1
@<TRIPOS>SUBSTRUCTURE
     1 4JP         1 TEMP              0 ****  ****    0 ROOT
