@<TRIPOS>MOLECULE
4JQ
   19    20     1     0     0
SMALL
bcc


@<TRIPOS>ATOM
      1 C1           0.0000     0.0000     0.0000 ca         1 4JQ      -0.059000
      2 C2           1.3780     0.0000     0.0000 ca         1 4JQ      -0.126000
      3 C3           2.0740     0.0000     1.2030 ca         1 4JQ       0.165100
      4 C4           4.1150     0.0020     2.3660 c          1 4JQ       0.786800
      5 C5           3.4660     0.0020     3.6200 cc         1 4JQ      -0.258200
      6 C6           2.1100    -0.0000     3.6770 cd         1 4JQ       0.021800
      7 C7           1.3630     0.0000     2.4150 ca         1 4JQ      -0.168800
      8 C8          -0.0350    -0.0010     2.4070 ca         1 4JQ      -0.051000
      9 O1           5.3320     0.0030     2.3280 o          1 4JQ      -0.625500
     10 O            3.4250     0.0010     1.2160 os         1 4JQ      -0.274200
     11 C           -0.7090    -0.0010     1.2000 ca         1 4JQ      -0.001400
     12 N           -2.1070     0.0050     1.1830 nv         1 4JQ      -0.557200
     13 H1          -0.5370    -0.0000    -0.9410 ha         1 4JQ       0.112000
     14 H2           1.9190     0.0010    -0.9390 ha         1 4JQ       0.123000
     15 H3           4.0470    -0.0810     4.5300 ha         1 4JQ       0.140000
     16 H4           1.5940    -0.0000     4.6290 ha         1 4JQ       0.110000
     17 H5          -0.5860    -0.0020     3.3400 ha         1 4JQ       0.113000
     18 H6          -2.6120    -0.8600     1.1820 hn         1 4JQ       0.274800
     19 H7          -2.6040     0.8740     1.1830 hn         1 4JQ       0.274800
@<TRIPOS>BOND
     1     1     2 ar  
     2     1    11 ar  
     3     1    13 1   
     4     2     3 ar  
     5     2    14 1   
     6     3     7 ar  
     7     3    10 1   
     8     4     5 1   
     9     4     9 2   
    10     4    10 1   
    11     5     6 2   
    12     5    15 1   
    13     6     7 1   
    14     6    16 1   
    15     7     8 ar  
    16     8    11 ar  
    17     8    17 1   
    18    11    12 1   
    19    12    18 1   
    20    12    19 1   
@<TRIPOS>SUBSTRUCTURE
     1 4JQ         1 TEMP              0 ****  ****    0 ROOT
