@<TRIPOS>MOLECULE
molecule
   58    62     1     0     0
SMALL
bcc


@<TRIPOS>ATOM
      1 N1           0.0000     0.0000     0.0000 na         1 4JR      -0.188900
      2 N3           2.5140     1.3830    -1.6230 n3         1 4JR      -0.715600
      3 C4           1.3510     0.0000     0.0000 cc         1 4JR       0.401800
      4 C5           2.2280    -0.0010    -1.2250 c3         1 4JR       0.155500
      5 C6           3.5520     1.4290    -2.6610 c3         1 4JR       0.160300
      6 C7           3.9350     2.8860    -2.9360 c3         1 4JR      -0.057400
      7 C8           2.6950     3.6610    -3.3690 c3         1 4JR      -0.147000
      8 C10          2.8630     4.0940    -5.7170 c3         1 4JR       0.093000
      9 C13          3.5780     6.6650    -6.9100 ca         1 4JR      -0.169000
     10 C15          3.9730     9.0220    -6.6820 cp         1 4JR      -0.064000
     11 C17          3.5020     7.6980    -4.7360 ca         1 4JR      -0.169000
     12 C20          4.6910    12.6920    -7.0700 ca         1 4JR      -0.125500
     13 C21          4.8700    12.7890    -8.4390 ca         1 4JR      -0.130000
     14 C22          4.7570    11.6650    -9.2380 ca         1 4JR      -0.125500
     15 C24          1.5990     3.5480    -2.3150 c3         1 4JR      -0.057400
     16 C1          -0.8690    -0.0060    -1.1790 c3         1 4JR       0.027600
     17 C2          -0.4050     0.0010     1.3070 cc         1 4JR      -0.277600
     18 C3           0.7110     0.0010     2.0600 cd         1 4JR       0.314200
     19 N2           1.7680     0.0000     1.2360 nd         1 4JR      -0.675000
     20 C25          1.2910     2.0680    -2.0600 c3         1 4JR       0.160300
     21 C11          3.0340     5.1060    -3.6320 c          1 4JR       0.714500
     22 O            3.2100     5.9470    -2.7750 o          1 4JR      -0.610500
     23 C9           2.1840     3.1260    -4.7220 c3         1 4JR      -0.097400
     24 N4           3.1130     5.3260    -4.9580 n          1 4JR      -0.379000
     25 C12          3.3990     6.5660    -5.5360 ca         1 4JR       0.078600
     26 C14          3.8640     7.8860    -7.4830 ca         1 4JR      -0.094000
     27 C16          3.7930     8.9200    -5.3040 ca         1 4JR      -0.094000
     28 C18          4.2870    10.3360    -7.2950 cp         1 4JR      -0.028000
     29 C23          4.4670    10.4400    -8.6730 ca         1 4JR      -0.123000
     30 C19          4.4000    11.4720    -6.4950 ca         1 4JR      -0.123000
     31 H2           3.1580    -0.5120    -1.0030 h1         1 4JR       0.050700
     32 H3           1.7200    -0.5120    -2.0340 h1         1 4JR       0.050700
     33 H4           4.4250     0.8850    -2.3210 h1         1 4JR       0.035200
     34 H5           3.1720     0.9790    -3.5700 h1         1 4JR       0.035200
     35 H6           4.6760     2.9210    -3.7250 hc         1 4JR       0.065450
     36 H7           4.3390     3.3290    -2.0330 hc         1 4JR       0.065450
     37 H8           3.7990     3.6750    -6.0660 h1         1 4JR       0.054200
     38 H9           2.2020     4.2980    -6.5500 h1         1 4JR       0.054200
     39 H11          3.3620     7.6180    -3.6640 ha         1 4JR       0.157000
     40 H12          4.7810    13.5750    -6.4490 ha         1 4JR       0.129000
     41 H13          5.0990    13.7490    -8.8870 ha         1 4JR       0.128000
     42 H14          4.8980    11.7470   -10.3090 ha         1 4JR       0.129000
     43 H15          0.7040     4.0450    -2.6700 hc         1 4JR       0.065450
     44 H16          1.9350     4.0090    -1.3940 hc         1 4JR       0.065450
     45 H17         -1.2010     1.0040    -1.3880 h1         1 4JR       0.052700
     46 H18         -0.3210    -0.3890    -2.0300 h1         1 4JR       0.052700
     47 H19         -1.7300    -0.6360    -0.9900 h1         1 4JR       0.052700
     48 H20         -1.4270     0.0010     1.6670 h4         1 4JR       0.172000
     49 H21          0.7480     0.0010     3.1430 h4         1 4JR       0.041100
     50 H22          0.9310     1.6130    -2.9750 h1         1 4JR       0.035200
     51 H23          0.5370     1.9860    -1.2870 h1         1 4JR       0.035200
     52 H24          1.1050     3.2030    -4.7850 hc         1 4JR       0.062700
     53 H25          2.5180     2.1090    -4.8850 hc         1 4JR       0.062700
     54 H26          4.0030     7.9630    -8.5550 ha         1 4JR       0.136500
     55 H27          3.8750     9.8020    -4.6800 ha         1 4JR       0.136500
     56 H28          4.3780     9.5610    -9.3000 ha         1 4JR       0.132000
     57 H29          4.2610    11.3970    -5.4240 ha         1 4JR       0.132000
     58 H10          3.4950     5.7820    -7.5320 ha         1 4JR       0.157000
@<TRIPOS>BOND
     1    12    13 ar
     2    12    30 ar
     3    13    14 ar
     4    30    28 ar
     5    14    29 ar
     6    28    29 ar
     7    28    10 1
     8    26    10 ar
     9    26     9 ar
    10    10    27 ar
    11     9    25 ar
    12    27    11 ar
    13    25    11 ar
    14    25    24 1
    15     8    24 1
    16     8    23 1
    17    24    21 1
    18    23     7 1
    19    15     7 1
    20    15    20 1
    21    21    22 2
    22    21     7 1
    23     7     6 1
    24    20     2 1
    25    16     1 1
    26     1    17 1
    27     1     3 1
    28     2     4 1
    29     2     5 1
    30     6     5 1
    31    17    18 2
    32     4     3 1
    33     3    19 2
    34    18    19 1
    35     4    31 1
    36     4    32 1
    37     5    33 1
    38     5    34 1
    39     6    35 1
    40     6    36 1
    41     8    37 1
    42     8    38 1
    43     9    58 1
    44    11    39 1
    45    12    40 1
    46    13    41 1
    47    14    42 1
    48    15    43 1
    49    15    44 1
    50    16    45 1
    51    16    46 1
    52    16    47 1
    53    17    48 1
    54    18    49 1
    55    20    50 1
    56    20    51 1
    57    23    52 1
    58    23    53 1
    59    26    54 1
    60    27    55 1
    61    29    56 1
    62    30    57 1
@<TRIPOS>SUBSTRUCTURE
     1 4JR         1 TEMP              0 ****  ****    0 ROOT
