@<TRIPOS>MOLECULE
4JR
   58    62     1     0     0
SMALL
bcc


@<TRIPOS>ATOM
      1 N1           0.0000     0.0000     0.0000 na         1 4JR       0.293100
      2 N3           2.5140     1.3830    -1.6230 n3         1 4JR      -0.520600
      3 C4           1.3510     0.0000     0.0000 cc         1 4JR       0.189800
      4 C5           2.2280    -0.0010    -1.2250 c3         1 4JR       0.155500
      5 C6           3.5520     1.4290    -2.6610 c3         1 4JR       0.139800
      6 C7           3.9350     2.8860    -2.9360 c3         1 4JR      -0.003900
      7 C8           2.6950     3.6610    -3.3690 c3         1 4JR      -0.155000
      8 C10          2.8630     4.0940    -5.7170 c3         1 4JR       0.030000
      9 C13          3.5780     6.6650    -6.9100 ca         1 4JR      -0.151500
     10 C15          3.9730     9.0220    -6.6820 cp         1 4JR      -0.057000
     11 C17          3.5020     7.6980    -4.7360 ca         1 4JR      -0.151500
     12 C20          4.6910    12.6920    -7.0700 ca         1 4JR      -0.097000
     13 C21          4.8700    12.7890    -8.4390 ca         1 4JR      -0.104000
     14 C22          4.7570    11.6650    -9.2380 ca         1 4JR      -0.097000
     15 C24          1.5990     3.5480    -2.3150 c3         1 4JR      -0.003900
     16 C1          -0.8690    -0.0060    -1.1790 c3         1 4JR      -0.025400
     17 C2          -0.4050     0.0010     1.3070 cc         1 4JR      -0.436600
     18 C3           0.7110     0.0010     2.0600 cd         1 4JR       0.324200
     19 N2           1.7680     0.0000     1.2360 nd         1 4JR      -0.593000
     20 C25          1.2910     2.0680    -2.0600 c3         1 4JR       0.139800
     21 C11          3.0340     5.1060    -3.6320 c          1 4JR       0.631500
     22 O            3.2100     5.9470    -2.7750 o          1 4JR      -0.646500
     23 C9           2.1840     3.1260    -4.7220 c3         1 4JR      -0.046400
     24 N4           3.1130     5.3260    -4.9580 n          1 4JR       0.012000
     25 C12          3.3990     6.5660    -5.5360 ca         1 4JR      -0.060400
     26 C14          3.8640     7.8860    -7.4830 ca         1 4JR      -0.070000
     27 C16          3.7930     8.9200    -5.3040 ca         1 4JR      -0.070000
     28 C18          4.2870    10.3360    -7.2950 cp         1 4JR      -0.024000
     29 C23          4.4670    10.4400    -8.6730 ca         1 4JR      -0.103500
     30 C19          4.4000    11.4720    -6.4950 ca         1 4JR      -0.103500
     31 H2           3.1580    -0.5120    -1.0030 h1         1 4JR       0.016700
     32 H3           1.7200    -0.5120    -2.0340 h1         1 4JR       0.016700
     33 H4           4.4250     0.8850    -2.3210 h1         1 4JR       0.011450
     34 H5           3.1720     0.9790    -3.5700 h1         1 4JR       0.011450
     35 H6           4.6760     2.9210    -3.7250 hc         1 4JR       0.034450
     36 H7           4.3390     3.3290    -2.0330 hc         1 4JR       0.034450
     37 H8           3.7990     3.6750    -6.0660 h1         1 4JR       0.025200
     38 H9           2.2020     4.2980    -6.5500 h1         1 4JR       0.025200
     39 H11          3.3620     7.6180    -3.6640 ha         1 4JR       0.138500
     40 H12          4.7810    13.5750    -6.4490 ha         1 4JR       0.101500
     41 H13          5.0990    13.7490    -8.8870 ha         1 4JR       0.101000
     42 H14          4.8980    11.7470   -10.3090 ha         1 4JR       0.101500
     43 H15          0.7040     4.0450    -2.6700 hc         1 4JR       0.034450
     44 H16          1.9350     4.0090    -1.3940 hc         1 4JR       0.034450
     45 H17         -1.2010     1.0040    -1.3880 h1         1 4JR       0.026033
     46 H18         -0.3210    -0.3890    -2.0300 h1         1 4JR       0.026033
     47 H19         -1.7300    -0.6360    -0.9900 h1         1 4JR       0.026033
     48 H20         -1.4270     0.0010     1.6670 h4         1 4JR       0.152000
     49 H21          0.7480     0.0010     3.1430 h4         1 4JR       0.003100
     50 H22          0.9310     1.6130    -2.9750 h1         1 4JR       0.011450
     51 H23          0.5370     1.9860    -1.2870 h1         1 4JR       0.011450
     52 H24          1.1050     3.2030    -4.7850 hc         1 4JR       0.037200
     53 H25          2.5180     2.1090    -4.8850 hc         1 4JR       0.037200
     54 H26          4.0030     7.9630    -8.5550 ha         1 4JR       0.112500
     55 H27          3.8750     9.8020    -4.6800 ha         1 4JR       0.112500
     56 H28          4.3780     9.5610    -9.3000 ha         1 4JR       0.111000
     57 H29          4.2610    11.3970    -5.4240 ha         1 4JR       0.111000
     58 H10          3.4950     5.7820    -7.5320 ha         1 4JR       0.138500
@<TRIPOS>BOND
     1     1     3 1   
     2     1    16 1   
     3     1    17 1   
     4     2     4 1   
     5     2     5 1   
     6     2    20 1   
     7     3     4 1   
     8     3    19 2   
     9     4    31 1   
    10     4    32 1   
    11     5     6 1   
    12     5    33 1   
    13     5    34 1   
    14     6     7 1   
    15     6    35 1   
    16     6    36 1   
    17     7    15 1   
    18     7    21 1   
    19     7    23 1   
    20     8    23 1   
    21     8    24 1   
    22     8    37 1   
    23     8    38 1   
    24     9    25 ar  
    25     9    26 ar  
    26     9    58 1   
    27    10    26 ar  
    28    10    27 ar  
    29    10    28 1   
    30    11    25 ar  
    31    11    27 ar  
    32    11    39 1   
    33    12    13 ar  
    34    12    30 ar  
    35    12    40 1   
    36    13    14 ar  
    37    13    41 1   
    38    14    29 ar  
    39    14    42 1   
    40    15    20 1   
    41    15    43 1   
    42    15    44 1   
    43    16    45 1   
    44    16    46 1   
    45    16    47 1   
    46    17    18 2   
    47    17    48 1   
    48    18    19 1   
    49    18    49 1   
    50    20    50 1   
    51    20    51 1   
    52    21    22 2   
    53    21    24 1   
    54    23    52 1   
    55    23    53 1   
    56    24    25 1   
    57    26    54 1   
    58    27    55 1   
    59    28    29 ar  
    60    28    30 ar  
    61    29    56 1   
    62    30    57 1   
@<TRIPOS>SUBSTRUCTURE
     1 4JR         1 TEMP              0 ****  ****    0 ROOT
