@<TRIPOS>MOLECULE
molecule
   27    28     1     0     0
SMALL
bcc


@<TRIPOS>ATOM
      1 N1           0.0000     0.0000     0.0000 nb         1 4JS      -0.665000
      2 C11          1.3250     0.0000    -2.4330 ca         1 4JS      -0.085000
      3 C5           1.3370     0.0000     0.0000 ca         1 4JS       0.401600
      4 C4          -0.6850    -0.0000    -1.1160 ca         1 4JS       0.411200
      5 C3          -0.0540    -0.0000    -2.3660 ca         1 4JS      -0.078700
      6 C6           2.0590     0.0000     1.2070 ca         1 4JS      -0.160300
      7 C1          -1.1250    -0.5350    -5.9340 c3         1 4JS      -0.159400
      8 C2          -0.3630    -0.6350    -4.6370 c          1 4JS       0.656100
      9 C9           3.4510     0.0010    -1.2150 ca         1 4JS      -0.109000
     10 C8           4.1160     0.0010    -0.0270 ca         1 4JS      -0.124000
     11 C7           3.4200     0.0010     1.1800 ca         1 4JS      -0.124000
     12 O            0.6580    -1.2870    -4.5830 o          1 4JS      -0.591100
     13 C           -0.4010    -1.3410    -7.0140 c3         1 4JS      -0.077100
     14 N           -0.8170     0.0010    -3.5390 ns         1 4JS      -0.477100
     15 C10          2.0470     0.0000    -1.2260 ca         1 4JS      -0.137300
     16 H1           1.8360     0.0000    -3.3880 ha         1 4JS       0.169000
     17 H2          -1.7680    -0.0000    -1.0710 h4         1 4JS       0.020100
     18 H3           1.5340     0.0000     2.1550 ha         1 4JS       0.147000
     19 H4          -1.1860     0.5030    -6.2390 hc         1 4JS       0.060700
     20 H5          -2.1240    -0.9300    -5.7980 hc         1 4JS       0.060700
     21 H6           4.0030     0.0000    -2.1480 ha         1 4JS       0.137000
     22 H7           5.1990     0.0020    -0.0190 ha         1 4JS       0.131000
     23 H8           3.9710     0.0010     2.1130 ha         1 4JS       0.132000
     24 H9          -0.9790    -1.3180    -7.9300 hc         1 4JS       0.046033
     25 H10          0.5760    -0.9100    -7.1920 hc         1 4JS       0.046033
     26 H11         -0.2890    -2.3670    -6.6840 hc         1 4JS       0.046033
     27 H12         -1.6850     0.4980    -3.5710 hn         1 4JS       0.325500
@<TRIPOS>BOND
     1    13     7 1
     2     7     8 1
     3     8    14 1
     4     8    12 2
     5    14     5 1
     6     5     2 ar
     7     5     4 ar
     8     2    15 ar
     9     4     1 ar
    10    15     9 ar
    11    15     3 ar
    12     9    10 ar
    13     1     3 ar
    14     3     6 ar
    15    10    11 ar
    16     6    11 ar
    17     2    16 1
    18     4    17 1
    19     6    18 1
    20     7    19 1
    21     7    20 1
    22     9    21 1
    23    10    22 1
    24    11    23 1
    25    13    24 1
    26    13    25 1
    27    13    26 1
    28    14    27 1
@<TRIPOS>SUBSTRUCTURE
     1 4JS         1 TEMP              0 ****  ****    0 ROOT
