@<TRIPOS>MOLECULE
molecule
   20    21     1     0     0
SMALL
bcc


@<TRIPOS>ATOM
      1 C10          0.0000     0.0000     0.0000 ca         1 4JT      -0.126000
      2 C11          1.3840     0.0000     0.0000 ca         1 4JT      -0.051000
      3 C8          -0.7020     0.0040     1.1880 ca         1 4JT      -0.032000
      4 C9           2.0770     0.0000     1.1970 ca         1 4JT      -0.097000
      5 C4          -0.0190     0.0100     2.4060 ca         1 4JT       0.084400
      6 C5           1.3840     0.0010     2.3950 ca         1 4JT       0.019900
      7 C3          -0.3080     0.3600     4.7310 c2         1 4JT       0.381200
      8 C6           1.0790     0.9110     4.9970 c3         1 4JT      -0.092600
      9 N1          -0.7220     0.0000     3.5730 ne         1 4JT      -0.507100
     10 N7          -1.1830     0.2750     5.7810 nz         1 4JT      -0.728600
     11 S2           2.2520     0.0180     3.9320 ss         1 4JT      -0.115000
     12 H1          -0.5370    -0.0030    -0.9410 ha         1 4JT       0.165000
     13 H2           1.9250     0.0010    -0.9380 ha         1 4JT       0.165000
     14 H3          -1.7850     0.0010     1.1760 ha         1 4JT       0.160000
     15 H4           3.1580    -0.0570     1.1970 ha         1 4JT       0.167000
     16 H5           1.0980     1.9630     4.7400 h1         1 4JT       0.104700
     17 H6           1.3380     0.7330     6.0340 h1         1 4JT       0.104700
     18 H7          -2.0710    -0.0480     5.4500 hn         1 4JT       0.465467
     19 H8          -1.2910     1.1780     6.2000 hn         1 4JT       0.465467
     20 H73         -0.8270    -0.3680     6.4610 hn         1 4JT       0.465467
@<TRIPOS>BOND
     1    10     7 1
     2     7     9 2
     3     7     8 1
     4     9     5 1
     5    11     8 1
     6    11     6 1
     7     5     6 ar
     8     5     3 ar
     9     6     4 ar
    10     3     1 ar
    11     4     2 ar
    12     1     2 ar
    13     1    12 1
    14     2    13 1
    15     3    14 1
    16     4    15 1
    17     8    16 1
    18     8    17 1
    19    10    18 1
    20    10    19 1
    21    20    10 1
@<TRIPOS>SUBSTRUCTURE
     1 4JT         1 TEMP              0 ****  ****    0 ROOT
