@<TRIPOS>MOLECULE
4JT
   20    21     1     0     0
SMALL
bcc


@<TRIPOS>ATOM
      1 C10          0.0000     0.0000     0.0000 ca         1 4JT      -0.098000
      2 C11          1.3840     0.0000     0.0000 ca         1 4JT      -0.004000
      3 C8          -0.7020     0.0040     1.1880 ca         1 4JT       0.011000
      4 C9           2.0770     0.0000     1.1970 ca         1 4JT      -0.058000
      5 C4          -0.0190     0.0100     2.4060 ca         1 4JT      -0.015600
      6 C5           1.3840     0.0010     2.3950 ca         1 4JT       0.068900
      7 C3          -0.3080     0.3600     4.7310 c2         1 4JT       0.021200
      8 C6           1.0790     0.9110     4.9970 c3         1 4JT       0.050400
      9 N1          -0.7220     0.0000     3.5730 ne         1 4JT      -0.260100
     10 N7          -1.1830     0.2750     5.7810 nz         1 4JT       0.213400
     11 S2           2.2520     0.0180     3.9320 ss         1 4JT      -0.224000
     12 H1          -0.5370    -0.0030    -0.9410 ha         1 4JT       0.131000
     13 H2           1.9250     0.0010    -0.9380 ha         1 4JT       0.127000
     14 H3          -1.7850     0.0010     1.1760 ha         1 4JT       0.123000
     15 H4           3.1580    -0.0570     1.1970 ha         1 4JT       0.139000
     16 H5           1.0980     1.9630     4.7400 h1         1 4JT       0.070200
     17 H6           1.3380     0.7330     6.0340 h1         1 4JT       0.070200
     18 H7          -2.0710    -0.0480     5.4500 hn         1 4JT       0.211133
     19 H8          -1.2910     1.1780     6.2000 hn         1 4JT       0.211133
     20 H73         -0.8270    -0.3680     6.4610 hn         1 4JT       0.211133
@<TRIPOS>BOND
     1     1     2 ar  
     2     1     3 ar  
     3     1    12 1   
     4     2     4 ar  
     5     2    13 1   
     6     3     5 ar  
     7     3    14 1   
     8     4     6 ar  
     9     4    15 1   
    10     5     6 ar  
    11     5     9 1   
    12     6    11 1   
    13     7     8 1   
    14     7     9 2   
    15     7    10 1   
    16     8    11 1   
    17     8    16 1   
    18     8    17 1   
    19    10    18 1   
    20    10    19 1   
    21    10    20 1   
@<TRIPOS>SUBSTRUCTURE
     1 4JT         1 TEMP              0 ****  ****    0 ROOT
