@<TRIPOS>MOLECULE
4JU
   24    24     1     0     0
SMALL
bcc


@<TRIPOS>ATOM
      1 N1           0.0000     0.0000     0.0000 nz         1 4JU       0.076400
      2 C5           1.4690     0.0000     0.0000 c3         1 4JU      -0.085500
      3 C6           1.9790     0.0000     1.4430 c3         1 4JU      -0.027400
      4 C4           1.9790    -1.2490    -0.7210 c3         1 4JU      -0.027400
      5 C3           3.5090    -1.2490    -0.7210 c3         1 4JU      -0.012400
      6 C2           4.0190    -1.2480     0.7220 c3         1 4JU      -0.060700
      7 C1           5.5500    -1.2480     0.7210 c3         1 4JU       0.012900
      8 C7           3.5090     0.0010     1.4420 c3         1 4JU      -0.012400
      9 H1          -0.3340     0.8170     0.4720 hn         1 4JU       0.224133
     10 H2          -0.3340    -0.8170     0.4720 hn         1 4JU       0.224133
     11 H4           1.8350     0.8830    -0.5100 hx         1 4JU       0.095700
     12 H5           1.6200    -0.8860     1.9520 hc         1 4JU       0.032200
     13 H6           1.6190     0.8860     1.9520 hc         1 4JU       0.032200
     14 H7           1.6190    -1.2460    -1.7430 hc         1 4JU       0.032200
     15 H8           1.6190    -2.1320    -0.2080 hc         1 4JU       0.032200
     16 H9           3.8690    -2.1350    -1.2290 hc         1 4JU       0.039700
     17 H10          3.8690    -0.3630    -1.2300 hc         1 4JU       0.039700
     18 H11          3.6540    -2.1310     1.2320 hc         1 4JU       0.035700
     19 H12          5.9100    -2.1330     0.2110 hc         1 4JU       0.015367
     20 H13          5.9110    -1.2480     1.7430 hc         1 4JU       0.015367
     21 H14          5.9110    -0.3640     0.2100 hc         1 4JU       0.015367
     22 H15          3.8680     0.8840     0.9290 hc         1 4JU       0.039700
     23 H16          3.8690    -0.0010     2.4640 hc         1 4JU       0.039700
     24 H131        -0.3340    -0.0000    -0.9440 hn         1 4JU       0.224133
@<TRIPOS>BOND
     1     1     2 1   
     2     1     9 1   
     3     1    10 1   
     4     1    24 1   
     5     2     3 1   
     6     2     4 1   
     7     2    11 1   
     8     3     8 1   
     9     3    12 1   
    10     3    13 1   
    11     4     5 1   
    12     4    14 1   
    13     4    15 1   
    14     5     6 1   
    15     5    16 1   
    16     5    17 1   
    17     6     7 1   
    18     6     8 1   
    19     6    18 1   
    20     7    19 1   
    21     7    20 1   
    22     7    21 1   
    23     8    22 1   
    24     8    23 1   
@<TRIPOS>SUBSTRUCTURE
     1 4JU         1 TEMP              0 ****  ****    0 ROOT
