@<TRIPOS>MOLECULE
4JV
   37    39     1     0     0
SMALL
bcc


@<TRIPOS>ATOM
      1 C11          0.0000     0.0000     0.0000 ca         1 4JV      -0.013000
      2 C18         -3.6470     1.1960     6.7290 ca         1 4JV      -0.107000
      3 C19         -3.6360    -1.1980     6.7340 ca         1 4JV      -0.107000
      4 C16         -3.0860     1.1960     5.4660 ca         1 4JV      -0.072000
      5 C17         -3.0870    -1.1980     5.4640 ca         1 4JV      -0.072000
      6 C5           1.3640     0.0000     0.0000 ca         1 4JV      -0.228300
      7 C8          -0.7180    -0.0010     1.1890 ca         1 4JV      -0.272000
      8 C1           1.3390    -0.0010     2.4320 ca         1 4JV      -0.368600
      9 C20         -3.9210    -0.0010     7.3630 ca         1 4JV      -0.078300
     10 C15         -2.8060    -0.0010     4.8330 ca         1 4JV      -0.122300
     11 C2           2.0620     0.0000     1.2140 ca         1 4JV       0.495600
     12 C3          -0.0640    -0.0010     2.4060 ca         1 4JV       0.220100
     13 C4           2.0660    -0.0020     3.6450 ca         1 4JV       0.627200
     14 C12          4.0310    -0.0020     2.4190 ca         1 4JV       0.728900
     15 C13         -2.1960    -0.0010     3.4560 c3         1 4JV       0.258700
     16 N6           3.4030    -0.0010     1.2600 nb         1 4JV      -0.727000
     17 N9           3.3900    -0.0020     3.5850 nb         1 4JV      -0.714000
     18 N10          1.4160    -0.0020     4.8600 nv         1 4JV      -0.650500
     19 N14          5.4140    -0.0020     2.4230 nv         1 4JV      -0.499500
     20 O7          -0.7720    -0.0010     3.5650 os         1 4JV      -0.290900
     21 H1          -0.5320    -0.0000    -0.9430 ha         1 4JV       0.097000
     22 H2          -3.8680     2.1340     7.2240 ha         1 4JV       0.107500
     23 H3          -3.8540    -2.1360     7.2300 ha         1 4JV       0.107500
     24 H4          -2.8680     2.1340     4.9700 ha         1 4JV       0.107000
     25 H5          -2.8650    -2.1360     4.9700 ha         1 4JV       0.107000
     26 H6           1.9070     0.0010    -0.9380 ha         1 4JV       0.122000
     27 H7          -1.8010    -0.0010     1.1620 ha         1 4JV       0.122000
     28 H8          -4.9130     0.9880     8.9670 hc         1 4JV       0.008700
     29 H9          -5.3440    -0.7170     8.7750 hc         1 4JV       0.008700
     30 H10         -3.7790    -0.2730     9.4700 hc         1 4JV       0.008700
     31 H11         -2.5180    -0.8850     2.9190 h1         1 4JV       0.006700
     32 H12         -2.5180     0.8830     2.9190 h1         1 4JV       0.006700
     33 H13          1.2090    -0.8680     5.3170 hn         1 4JV       0.285800
     34 H14          1.2050     0.8650     5.3150 hn         1 4JV       0.285800
     35 H15          5.9120    -0.0040     3.2910 hn         1 4JV       0.274300
     36 H16          5.9170    -0.0030     1.5580 hn         1 4JV       0.274300
     37 C21         -4.5320    -0.0010     8.7410 c3         1 4JV       0.062200
@<TRIPOS>BOND
     1     1     6 ar  
     2     1     7 ar  
     3     1    21 1   
     4     2     4 ar  
     5     2     9 ar  
     6     2    22 1   
     7     3     5 ar  
     8     3     9 ar  
     9     3    23 1   
    10     4    10 ar  
    11     4    24 1   
    12     5    10 ar  
    13     5    25 1   
    14     6    11 ar  
    15     6    26 1   
    16     7    12 ar  
    17     7    27 1   
    18     8    11 ar  
    19     8    12 ar  
    20     8    13 ar  
    21     9    37 1   
    22    10    15 1   
    23    11    16 ar  
    24    12    20 1   
    25    13    17 ar  
    26    13    18 1   
    27    14    16 ar  
    28    14    17 ar  
    29    14    19 1   
    30    15    20 1   
    31    15    31 1   
    32    15    32 1   
    33    18    33 1   
    34    18    34 1   
    35    19    35 1   
    36    19    36 1   
    37    28    37 1   
    38    29    37 1   
    39    30    37 1   
@<TRIPOS>SUBSTRUCTURE
     1 4JV         1 TEMP              0 ****  ****    0 ROOT
