@<TRIPOS>MOLECULE
4JW
   35    37     1     0     0
SMALL
bcc


@<TRIPOS>ATOM
      1 C20          0.0000     0.0000     0.0000 ca         1 4JW      -0.123000
      2 C18          1.3830     0.0000     0.0000 ca         1 4JW      -0.074500
      3 C19         -0.6940    -0.0000     1.1970 ca         1 4JW      -0.074500
      4 C17          2.6190     0.3030    11.0020 ca         1 4JW      -0.102000
      5 C16          1.5820     1.1660    10.7020 ca         1 4JW      -0.100000
      6 C15          2.0750     0.0000     1.1950 ca         1 4JW      -0.161500
      7 C14         -0.0070    -0.0050     2.3950 ca         1 4JW      -0.161500
      8 C13          3.2250    -0.4280     9.9960 ca         1 4JW      -0.101000
      9 C12          1.1430     1.2970     9.3980 ca         1 4JW      -0.097000
     10 C10          1.3810     0.0000     2.3980 ca         1 4JW      -0.081400
     11 C8           2.7930    -0.2980     8.6860 ca         1 4JW       0.062100
     12 C6           1.7410     0.5610     8.3860 ca         1 4JW       0.066100
     13 C1           1.4130     0.1510     4.7720 c          1 4JW       0.573100
     14 C7           2.7000    -1.1440     6.4650 c3         1 4JW       0.168400
     15 C2           2.1740     0.2460     6.0690 c3         1 4JW       0.057100
     16 C11          3.5360    -0.1640     3.6160 c3         1 4JW       0.032300
     17 N4           2.0800    -0.0000     3.6100 n          1 4JW       0.026000
     18 O9           0.2030     0.2090     4.7730 o          1 4JW      -0.596100
     19 O5           3.4030    -1.0190     7.7060 os         1 4JW      -0.296900
     20 O3           1.2980     0.6990     7.1060 os         1 4JW      -0.259900
     21 H1          -0.5410     0.0020    -0.9390 ha         1 4JW       0.102000
     22 H2           1.9230    -0.0000    -0.9390 ha         1 4JW       0.102500
     23 H3          -1.7770    -0.0020     1.1940 ha         1 4JW       0.102500
     24 H5           1.1090     1.7370    11.4910 ha         1 4JW       0.106000
     25 H6           3.1590     0.0020     1.1940 ha         1 4JW       0.153000
     26 H7          -0.5510    -0.0050     3.3310 ha         1 4JW       0.153000
     27 H8           4.0370    -1.1050    10.2340 ha         1 4JW       0.115000
     28 H9           0.3300     1.9750     9.1660 ha         1 4JW       0.119000
     29 H10          3.3730    -1.5100     5.7000 h1         1 4JW       0.034700
     30 H11          1.8680    -1.8270     6.5860 h1         1 4JW       0.034700
     31 H12          3.0040     0.9340     5.9650 h1         1 4JW       0.042700
     32 H13          3.9130    -0.0050     4.6190 h1         1 4JW       0.024367
     33 H14          3.7890    -1.1650     3.2900 h1         1 4JW       0.024367
     34 H15          3.9840     0.5580     2.9440 h1         1 4JW       0.024367
     35 H4           2.9600     0.2020    12.0250 ha         1 4JW       0.106000
@<TRIPOS>BOND
     1     1     2 ar  
     2     1     3 ar  
     3     1    21 1   
     4     2     6 ar  
     5     2    22 1   
     6     3     7 ar  
     7     3    23 1   
     8     4     5 ar  
     9     4     8 ar  
    10     4    35 1   
    11     5     9 ar  
    12     5    24 1   
    13     6    10 ar  
    14     6    25 1   
    15     7    10 ar  
    16     7    26 1   
    17     8    11 ar  
    18     8    27 1   
    19     9    12 ar  
    20     9    28 1   
    21    10    17 1   
    22    11    12 ar  
    23    11    19 1   
    24    12    20 1   
    25    13    15 1   
    26    13    17 1   
    27    13    18 2   
    28    14    15 1   
    29    14    19 1   
    30    14    29 1   
    31    14    30 1   
    32    15    20 1   
    33    15    31 1   
    34    16    17 1   
    35    16    32 1   
    36    16    33 1   
    37    16    34 1   
@<TRIPOS>SUBSTRUCTURE
     1 4JW         1 TEMP              0 ****  ****    0 ROOT
