@<TRIPOS>MOLECULE
4JX
   49    53     1     0     0
SMALL
bcc


@<TRIPOS>ATOM
      1 C1           0.0000     0.0000     0.0000 c3         1 4JX      -0.041400
      2 C2           1.5070     0.0000     0.0000 cc         1 4JX       0.390600
      3 C3           2.2050     0.0000     1.2140 cc         1 4JX      -0.247300
      4 C8           4.4310    -0.0050    -2.2130 cc         1 4JX      -0.427800
      5 C9           5.7100    -0.0010    -1.6260 cc         1 4JX       0.508500
      6 C11          4.1300    -0.0160    -3.6470 c          1 4JX       0.640300
      7 C14          4.8330    -0.0300    -5.9800 c3         1 4JX       0.033700
      8 C15          6.0040     0.5790    -6.7520 c3         1 4JX      -0.051700
      9 C16          7.2690    -0.2410    -6.4900 c3         1 4JX      -0.023400
     10 C19          4.6110    -1.4710    -6.4430 c3         1 4JX      -0.051700
     11 C20          4.2970    -1.4840    -7.9400 c3         1 4JX      -0.026900
     12 C21          5.4680    -0.8740    -8.7130 c3         1 4JX       0.171800
     13 C22          6.7330    -1.6940    -8.4500 c3         1 4JX      -0.050400
     14 C4           3.5620     0.0000     1.2000 cd         1 4JX      -0.154600
     15 N5           4.2140    -0.0010     0.0030 na         1 4JX       0.549200
     16 C6           3.4970    -0.0010    -1.1600 cd         1 4JX       0.252500
     17 N7           2.1630    -0.0070    -1.1390 nd         1 4JX      -0.502000
     18 N10          5.5740    -0.0010    -0.3250 nd         1 4JX      -0.744100
     19 O12          2.9740    -0.0240    -4.0250 o          1 4JX      -0.640100
     20 N13          5.1340    -0.0180    -4.5460 ns         1 4JX      -0.210900
     21 C17          7.0480    -1.6810    -6.9530 c3         1 4JX      -0.035700
     22 C18          5.8760    -2.2910    -6.1810 c3         1 4JX      -0.023400
     23 C23          5.6900     0.5670    -8.2490 c3         1 4JX      -0.026900
     24 O24          5.1740    -0.8860   -10.1110 oh         1 4JX      -0.584800
     25 C25          4.3380     0.0010     2.4910 c3         1 4JX       0.069200
     26 H12         -0.3610    -0.8700     0.5350 hc         1 4JX       0.020700
     27 H13         -0.3610    -0.0280    -1.0210 hc         1 4JX       0.020700
     28 H11         -0.3610     0.8980     0.4860 hc         1 4JX       0.020700
     29 H3           1.6730     0.1480     2.1450 ha         1 4JX       0.136000
     30 H9           6.6510     0.0020    -2.1630 h4         1 4JX       0.009800
     31 H14          3.9370     0.5500    -6.1650 h1         1 4JX       0.061700
     32 H15          6.1610     1.6000    -6.4250 hc         1 4JX       0.040200
     33 H162         7.4920    -0.2320    -5.4300 hc         1 4JX       0.016700
     34 H161         8.0990     0.1910    -7.0370 hc         1 4JX       0.016700
     35 H19          3.7810    -1.9030    -5.8960 hc         1 4JX       0.040200
     36 H201         4.1400    -2.5040    -8.2670 hc         1 4JX       0.025950
     37 H202         3.4010    -0.9030    -8.1260 hc         1 4JX       0.025950
     38 H222         6.5770    -2.7150    -8.7780 hc         1 4JX       0.021200
     39 H221         7.5630    -1.2630    -8.9970 hc         1 4JX       0.021200
     40 H1           6.0840     0.0430    -4.2350 hn         1 4JX       0.177500
     41 H17          7.9440    -2.2620    -6.7680 hc         1 4JX       0.024700
     42 H182         5.7190    -3.3120    -6.5080 hc         1 4JX       0.016700
     43 H181         6.0990    -2.2820    -5.1200 hc         1 4JX       0.016700
     44 H232         6.5200     0.9980    -8.7960 hc         1 4JX       0.025950
     45 H231         4.7950     1.1480    -8.4350 hc         1 4JX       0.025950
     46 H24          5.8940    -0.5060   -10.5870 ho         1 4JX       0.390000
     47 H251         4.9040     0.9210     2.5730 hc         1 4JX       0.024033
     48 H252         3.6520    -0.0760     3.3260 hc         1 4JX       0.024033
     49 H253         5.0180    -0.8430     2.5050 hc         1 4JX       0.024033
@<TRIPOS>BOND
     1     1     2 1   
     2     1    26 1   
     3     1    27 1   
     4     1    28 1   
     5     2     3 1   
     6     2    17 2   
     7     3    14 2   
     8     3    29 1   
     9     4     5 1   
    10     4     6 1   
    11     4    16 2   
    12     5    18 2   
    13     5    30 1   
    14     6    19 2   
    15     6    20 1   
    16     7     8 1   
    17     7    10 1   
    18     7    20 1   
    19     7    31 1   
    20     8     9 1   
    21     8    23 1   
    22     8    32 1   
    23     9    21 1   
    24     9    33 1   
    25     9    34 1   
    26    10    11 1   
    27    10    22 1   
    28    10    35 1   
    29    11    12 1   
    30    11    36 1   
    31    11    37 1   
    32    12    13 1   
    33    12    23 1   
    34    12    24 1   
    35    13    21 1   
    36    13    38 1   
    37    13    39 1   
    38    14    15 1   
    39    14    25 1   
    40    15    16 1   
    41    15    18 1   
    42    16    17 1   
    43    20    40 1   
    44    21    22 1   
    45    21    41 1   
    46    22    42 1   
    47    22    43 1   
    48    23    44 1   
    49    23    45 1   
    50    24    46 1   
    51    25    47 1   
    52    25    48 1   
    53    25    49 1   
@<TRIPOS>SUBSTRUCTURE
     1 4JX         1 TEMP              0 ****  ****    0 ROOT
