@<TRIPOS>MOLECULE
molecule
   49    53     1     0     0
SMALL
bcc


@<TRIPOS>ATOM
      1 C1           0.0000     0.0000     0.0000 c3         1 4JX      -0.146400
      2 C2           1.5070     0.0000     0.0000 cc         1 4JX       0.480600
      3 C3           2.2050     0.0000     1.2140 cc         1 4JX      -0.318300
      4 C8           4.4310    -0.0050    -2.2130 cc         1 4JX      -0.399800
      5 C9           5.7100    -0.0010    -1.6260 cc         1 4JX       0.437500
      6 C11          4.1300    -0.0160    -3.6470 c          1 4JX       0.709300
      7 C14          4.8330    -0.0300    -5.9800 c3         1 4JX       0.132700
      8 C15          6.0040     0.5790    -6.7520 c3         1 4JX      -0.077700
      9 C16          7.2690    -0.2410    -6.4900 c3         1 4JX      -0.070900
     10 C19          4.6110    -1.4710    -6.4430 c3         1 4JX      -0.077700
     11 C20          4.2970    -1.4840    -7.9400 c3         1 4JX      -0.074900
     12 C21          5.4680    -0.8740    -8.7130 c3         1 4JX       0.154800
     13 C22          6.7330    -1.6940    -8.4500 c3         1 4JX      -0.098400
     14 C4           3.5620     0.0000     1.2000 cd         1 4JX       0.063400
     15 N5           4.2140    -0.0010     0.0030 na         1 4JX       0.042200
     16 C6           3.4970    -0.0010    -1.1600 cd         1 4JX       0.469500
     17 N7           2.1630    -0.0070    -1.1390 nd         1 4JX      -0.653000
     18 N10          5.5740    -0.0010    -0.3250 nd         1 4JX      -0.579100
     19 O12          2.9740    -0.0240    -4.0250 o          1 4JX      -0.599100
     20 N13          5.1340    -0.0180    -4.5460 ns         1 4JX      -0.587900
     21 C17          7.0480    -1.6810    -6.9530 c3         1 4JX      -0.065700
     22 C18          5.8760    -2.2910    -6.1810 c3         1 4JX      -0.070900
     23 C23          5.6900     0.5670    -8.2490 c3         1 4JX      -0.074900
     24 O24          5.1740    -0.8860   -10.1110 oh         1 4JX      -0.601800
     25 C25          4.3380     0.0010     2.4910 c3         1 4JX      -0.052800
     26 H12         -0.3610    -0.8700     0.5350 hc         1 4JX       0.062367
     27 H13         -0.3610    -0.0280    -1.0210 hc         1 4JX       0.062367
     28 H11         -0.3610     0.8980     0.4860 hc         1 4JX       0.062367
     29 H3           1.6730     0.1480     2.1450 ha         1 4JX       0.161000
     30 H9           6.6510     0.0020    -2.1630 h4         1 4JX       0.059800
     31 H14          3.9370     0.5500    -6.1650 h1         1 4JX       0.083700
     32 H15          6.1610     1.6000    -6.4250 hc         1 4JX       0.067200
     33 H162         7.4920    -0.2320    -5.4300 hc         1 4JX       0.041700
     34 H161         8.0990     0.1910    -7.0370 hc         1 4JX       0.041700
     35 H19          3.7810    -1.9030    -5.8960 hc         1 4JX       0.067200
     36 H201         4.1400    -2.5040    -8.2670 hc         1 4JX       0.054200
     37 H202         3.4010    -0.9030    -8.1260 hc         1 4JX       0.054200
     38 H222         6.5770    -2.7150    -8.7780 hc         1 4JX       0.047200
     39 H221         7.5630    -1.2630    -8.9970 hc         1 4JX       0.047200
     40 H1           6.0840     0.0430    -4.2350 hn         1 4JX       0.307500
     41 H17          7.9440    -2.2620    -6.7680 hc         1 4JX       0.049700
     42 H182         5.7190    -3.3120    -6.5080 hc         1 4JX       0.041700
     43 H181         6.0990    -2.2820    -5.1200 hc         1 4JX       0.041700
     44 H232         6.5200     0.9980    -8.7960 hc         1 4JX       0.054200
     45 H231         4.7950     1.1480    -8.4350 hc         1 4JX       0.054200
     46 H24          5.8940    -0.5060   -10.5870 ho         1 4JX       0.400000
     47 H251         4.9040     0.9210     2.5730 hc         1 4JX       0.065700
     48 H252         3.6520    -0.0760     3.3260 hc         1 4JX       0.065700
     49 H253         5.0180    -0.8430     2.5050 hc         1 4JX       0.065700
@<TRIPOS>BOND
     1    19     6 2   
     2    24    12 1   
     3    23    12 1   
     4    23     8 1   
     5    11    12 1   
     6    11    10 1   
     7     7     8 1   
     8     7    20 1   
     9     7    10 1   
    10    12    13 1   
    11     8     9 1   
    12     6    20 1   
    13     6     4 1   
    14    10    22 1   
    15     5     4 1   
    16     5    18 2   
    17     4    16 2   
    18    13    21 1   
    19     9    21 1   
    20    18    15 1   
    21    16    17 1   
    22    16    15 1   
    23    22    21 1   
    24    17     2 2   
    25    15    14 1   
    26     2     1 1   
    27     2     3 1   
    28    14     3 2   
    29    14    25 1   
    30     1    26 1   
    31     1    27 1   
    32     1    28 1   
    33     3    29 1   
    34     5    30 1   
    35     7    31 1   
    36     8    32 1   
    37     9    33 1   
    38     9    34 1   
    39    10    35 1   
    40    11    36 1   
    41    11    37 1   
    42    13    38 1   
    43    13    39 1   
    44    20    40 1   
    45    21    41 1   
    46    22    42 1   
    47    22    43 1   
    48    23    44 1   
    49    23    45 1   
    50    24    46 1   
    51    25    47 1   
    52    25    48 1   
    53    25    49 1   
@<TRIPOS>SUBSTRUCTURE
     1 4JX         1 TEMP              0 ****  ****    0 ROOT
