@<TRIPOS>MOLECULE
molecule
   67    70     1     0     0
SMALL
bcc


@<TRIPOS>ATOM
      1 C13          0.0000     0.0000     0.0000 ca         1 4JY      -0.276900
      2 C16         -0.7400     0.0010    -1.2800 ce         1 4JY       0.557800
      3 C15         -0.0040     0.0100     2.4010 ca         1 4JY      -0.203000
      4 C22          3.4030    -6.1160     3.8830 c3         1 4JY       0.133400
      5 C23          2.3440    -7.1440     4.2840 c3         1 4JY      -0.093100
      6 C24          7.5270    -4.5400     2.5400 c3         1 4JY       0.135100
      7 C11          2.0830     0.0000     1.1930 ca         1 4JY      -0.203000
      8 C12          1.3960     0.0000     0.0000 ca         1 4JY      -0.030000
      9 C34          4.5600     0.3170    11.1930 ca         1 4JY      -0.120000
     10 C33          3.9220    -0.6000    10.3780 ca         1 4JY      -0.127500
     11 N1           2.0850     0.0150     3.6030 nu         1 4JY      -0.772600
     12 C2           3.5500     0.0150     3.6010 c3         1 4JY       0.287500
     13 C3           4.0530    -1.4010     3.4830 ca         1 4JY      -0.083300
     14 C4           4.0530     0.6210     4.8860 cd         1 4JY       0.360800
     15 C5           5.3440    -1.6410     3.0510 ca         1 4JY       0.069900
     16 C6           5.8080    -2.9470     2.9410 ca         1 4JY       0.161100
     17 C7           4.9760    -4.0060     3.2660 ca         1 4JY      -0.289000
     18 C8           3.6820    -3.7610     3.6990 ca         1 4JY       0.175100
     19 C9           3.2230    -2.4570     3.8130 ca         1 4JY      -0.152000
     20 C10          1.3880     0.0100     2.3980 ca         1 4JY       0.260600
     21 C14         -0.6960     0.0050     1.2110 ca         1 4JY      -0.030000
     22 O17          7.0760    -3.1840     2.5140 os         1 4JY      -0.309900
     23 N18         -2.1180     0.0010    -1.2790 nz         1 4JY      -0.801600
     24 N19         -0.0900     0.0020    -2.4100 n2         1 4JY      -0.711100
     25 F20          6.1540    -0.6080     2.7350 f          1 4JY      -0.136900
     26 O21          2.8640    -4.7990     4.0180 os         1 4JY      -0.326900
     27 C25          7.0910    -5.2450     1.2540 c3         1 4JY      -0.106100
     28 C26          9.0520    -4.5690     2.6460 c3         1 4JY      -0.106100
     29 N27          4.7530     1.7720     4.9900 na         1 4JY      -0.275900
     30 C28          5.0190     1.9730     6.3150 cd         1 4JY      -0.237600
     31 C29          4.4660     0.9280     6.9860 cc         1 4JY       0.380800
     32 N30          3.8790     0.1220     6.0780 nc         1 4JY      -0.670000
     33 C31          4.4990     0.7150     8.4540 ca         1 4JY      -0.113500
     34 C32          3.8890    -0.4070     9.0120 ca         1 4JY      -0.111000
     35 C35          5.1670     1.4320    10.6450 ca         1 4JY      -0.127500
     36 C36          5.1410     1.6350     9.2800 ca         1 4JY      -0.111000
     37 H44         -0.5430     0.0160     3.3400 ha         1 4JY       0.161000
     38 H49          3.6840    -6.2720     2.8480 h1         1 4JY       0.037200
     39 H48          4.2750    -6.2300     4.5150 h1         1 4JY       0.037200
     40 H51          2.4900    -8.0540     3.7130 hc         1 4JY       0.051700
     41 H52          1.3580    -6.7460     4.0810 hc         1 4JY       0.051700
     42 H50          2.4350    -7.3630     5.3410 hc         1 4JY       0.051700
     43 H53          7.0960    -5.0480     3.3950 h1         1 4JY       0.047700
     44 H41          3.1670    -0.0000     1.1940 ha         1 4JY       0.161000
     45 H42          1.9390    -0.0080    -0.9380 ha         1 4JY       0.134000
     46 H64          4.5830     0.1610    12.2650 ha         1 4JY       0.134000
     47 H63          3.4480    -1.4720    10.8120 ha         1 4JY       0.133500
     48 H37          1.5860     0.0720     4.4690 hn         1 4JY       0.471800
     49 H38          3.9100     0.5970     2.7620 h1         1 4JY       0.075700
     50 H39          5.3350    -5.0250     3.1790 ha         1 4JY       0.157000
     51 H40          2.2120    -2.2660     4.1520 ha         1 4JY       0.152000
     52 H43         -1.7790     0.0050     1.2140 ha         1 4JY       0.134000
     53 H45         -2.4530     0.1000    -2.2180 hn         1 4JY       0.461467
     54 H47         -0.5900     0.0020    -3.2770 hn         1 4JY       0.425400
     55 H56          7.8450    -5.1010     0.4900 hc         1 4JY       0.050200
     56 H55          6.1490    -4.8300     0.9160 hc         1 4JY       0.050200
     57 H54          6.9700    -6.3050     1.4460 hc         1 4JY       0.050200
     58 H57          9.4850    -4.1880     1.7290 hc         1 4JY       0.050200
     59 H59          9.3840    -5.5880     2.8060 hc         1 4JY       0.050200
     60 H58          9.3680    -3.9510     3.4780 hc         1 4JY       0.050200
     61 H60          5.0280     2.3680     4.2340 hn         1 4JY       0.305700
     62 H61          5.5650     2.8030     6.7470 h4         1 4JY       0.189000
     63 H62          3.3890    -1.1260     8.3740 ha         1 4JY       0.135500
     64 H65          5.6660     2.1470    11.2880 ha         1 4JY       0.133500
     65 H66          5.6170     2.5090     8.8530 ha         1 4JY       0.135500
     66 H3          -2.4520     0.7650    -0.7250 hn         1 4JY       0.461467
     67 H183        -2.4520    -0.8610    -0.8950 hn         1 4JY       0.461467
@<TRIPOS>BOND
     1     9    35 ar
     2     9    10 ar
     3    35    36 ar
     4    10    34 ar
     5    36    33 ar
     6    34    33 ar
     7    33    31 1
     8     5     4 1
     9    31    30 2
    10    31    32 1
    11     4    26 1
    12    30    29 1
    13    32    14 2
    14    26    18 1
    15    29    14 1
    16    14    12 1
    17    19    18 ar
    18    19    13 ar
    19    18    17 ar
    20    11    12 1
    21    11    20 1
    22    12    13 1
    23    13    15 ar
    24    17    16 ar
    25     3    20 ar
    26     3    21 ar
    27    20     7 ar
    28    15    16 ar
    29    15    25 1
    30    16    22 1
    31    21     1 ar
    32     7     8 ar
    33    22     6 1
    34    28     6 1
    35     6    27 1
    36     1     8 ar
    37     1     2 1
    38    24     2 2
    39     2    23 1
    40     3    37 1
    41     4    38 1
    42     4    39 1
    43     5    40 1
    44     5    41 1
    45     5    42 1
    46     6    43 1
    47     7    44 1
    48     8    45 1
    49     9    46 1
    50    10    47 1
    51    11    48 1
    52    12    49 1
    53    17    50 1
    54    19    51 1
    55    21    52 1
    56    23    53 1
    57    24    54 1
    58    27    55 1
    59    27    56 1
    60    27    57 1
    61    28    58 1
    62    28    59 1
    63    28    60 1
    64    29    61 1
    65    30    62 1
    66    34    63 1
    67    35    64 1
    68    36    65 1
    69    23    66 1
    70    67    23 1
@<TRIPOS>SUBSTRUCTURE
     1 4JY         1 TEMP              0 ****  ****    0 ROOT
