@<TRIPOS>MOLECULE
4JY
   67    70     1     0     0
SMALL
bcc


@<TRIPOS>ATOM
      1 C13          0.0000     0.0000     0.0000 ca         1 4JY      -0.325900
      2 C16         -0.7400     0.0010    -1.2800 ce         1 4JY       0.237800
      3 C15         -0.0040     0.0100     2.4010 ca         1 4JY      -0.176500
      4 C22          3.4030    -6.1160     3.8830 c3         1 4JY       0.201400
      5 C23          2.3440    -7.1440     4.2840 c3         1 4JY       0.001900
      6 C24          7.5270    -4.5400     2.5400 c3         1 4JY       0.163100
      7 C11          2.0830     0.0000     1.1930 ca         1 4JY      -0.176500
      8 C12          1.3960     0.0000     0.0000 ca         1 4JY      -0.007000
      9 C34          4.5600     0.3170    11.1930 ca         1 4JY      -0.093000
     10 C33          3.9220    -0.6000    10.3780 ca         1 4JY      -0.100000
     11 N1           2.0850     0.0150     3.6030 nu         1 4JY      -0.341600
     12 C2           3.5500     0.0150     3.6010 c3         1 4JY       0.199500
     13 C3           4.0530    -1.4010     3.4830 ca         1 4JY      -0.079300
     14 C4           4.0530     0.6210     4.8860 cc         1 4JY       0.124800
     15 C5           5.3440    -1.6410     3.0510 ca         1 4JY       0.030900
     16 C6           5.8080    -2.9470     2.9410 ca         1 4JY       0.187100
     17 C7           4.9760    -4.0060     3.2660 ca         1 4JY      -0.300000
     18 C8           3.6820    -3.7610     3.6990 ca         1 4JY       0.200100
     19 C9           3.2230    -2.4570     3.8130 ca         1 4JY      -0.153000
     20 C10          1.3880     0.0100     2.3980 ca         1 4JY       0.112600
     21 C14         -0.6960     0.0050     1.2110 ca         1 4JY      -0.007000
     22 O17          7.0760    -3.1840     2.5140 os         1 4JY      -0.284900
     23 N18         -2.1180     0.0010    -1.2790 nz         1 4JY       0.189400
     24 N19         -0.0900     0.0020    -2.4100 n2         1 4JY      -0.536100
     25 F20          6.1540    -0.6080     2.7350 f          1 4JY      -0.124900
     26 O21          2.8640    -4.7990     4.0180 os         1 4JY      -0.303900
     27 C25          7.0910    -5.2450     1.2540 c3         1 4JY      -0.016600
     28 C26          9.0520    -4.5690     2.6460 c3         1 4JY      -0.016600
     29 N27          4.7530     1.7720     4.9900 na         1 4JY       0.291100
     30 C28          5.0190     1.9730     6.3150 cc         1 4JY      -0.418600
     31 C29          4.4660     0.9280     6.9860 cd         1 4JY       0.370800
     32 N30          3.8790     0.1220     6.0780 nd         1 4JY      -0.581000
     33 C31          4.4990     0.7150     8.4540 ca         1 4JY      -0.116500
     34 C32          3.8890    -0.4070     9.0120 ca         1 4JY      -0.088500
     35 C35          5.1670     1.4320    10.6450 ca         1 4JY      -0.100000
     36 C36          5.1410     1.6350     9.2800 ca         1 4JY      -0.088500
     37 H44         -0.5430     0.0160     3.3400 ha         1 4JY       0.136500
     38 H49          4.2750    -6.2300     4.5150 h1         1 4JY       0.001700
     39 H48          3.6840    -6.2720     2.8480 h1         1 4JY       0.001700
     40 H51          2.0450    -6.9730     5.3110 hc         1 4JY       0.014367
     41 H52          2.7560    -8.1420     4.1890 hc         1 4JY       0.014367
     42 H50          1.4820    -7.0470     3.6360 hc         1 4JY       0.014367
     43 H53          7.0960    -5.0480     3.3950 h1         1 4JY       0.019700
     44 H41          3.1670    -0.0000     1.1940 ha         1 4JY       0.136500
     45 H42          1.9390    -0.0080    -0.9380 ha         1 4JY       0.091000
     46 H64          4.5830     0.1610    12.2650 ha         1 4JY       0.105000
     47 H63          3.4480    -1.4720    10.8120 ha         1 4JY       0.105500
     48 H37          1.5860     0.0700     4.4690 hn         1 4JY       0.319800
     49 H38          3.9100     0.5970     2.7620 h1         1 4JY       0.043700
     50 H39          5.3350    -5.0250     3.1790 ha         1 4JY       0.154000
     51 H40          2.2120    -2.2660     4.1520 ha         1 4JY       0.125000
     52 H43         -1.7790     0.0050     1.2140 ha         1 4JY       0.091000
     53 H45         -2.4520    -0.8150    -0.8060 hn         1 4JY       0.218800
     54 H47          0.9110     0.0020    -2.4130 hn         1 4JY       0.380400
     55 H56          7.9050    -5.2290     0.5400 hc         1 4JY       0.016533
     56 H55          6.2320    -4.7350     0.8350 hc         1 4JY       0.016533
     57 H54          6.8270    -6.2720     1.4770 hc         1 4JY       0.016533
     58 H57          9.4820    -4.0280     1.8120 hc         1 4JY       0.016533
     59 H59          9.3590    -4.1030     3.5750 hc         1 4JY       0.016533
     60 H58          9.3960    -5.5960     2.6270 hc         1 4JY       0.016533
     61 H60          5.0280     2.3680     4.2340 hn         1 4JY       0.122700
     62 H61          5.5650     2.8030     6.7470 h4         1 4JY       0.167000
     63 H62          3.3890    -1.1260     8.3740 ha         1 4JY       0.110000
     64 H65          5.6660     2.1470    11.2880 ha         1 4JY       0.105500
     65 H66          5.6170     2.5090     8.8530 ha         1 4JY       0.110000
     66 H3          -2.4520     0.8190    -0.8090 hn         1 4JY       0.218800
     67 H183        -2.4530    -0.0000    -2.2230 hn         1 4JY       0.218800
@<TRIPOS>BOND
     1     1     2 1   
     2     1     8 ar  
     3     1    21 ar  
     4     2    23 1   
     5     2    24 2   
     6     3    20 ar  
     7     3    21 ar  
     8     3    37 1   
     9     4     5 1   
    10     4    26 1   
    11     4    38 1   
    12     4    39 1   
    13     5    40 1   
    14     5    41 1   
    15     5    42 1   
    16     6    22 1   
    17     6    27 1   
    18     6    28 1   
    19     6    43 1   
    20     7     8 ar  
    21     7    20 ar  
    22     7    44 1   
    23     8    45 1   
    24     9    10 ar  
    25     9    35 ar  
    26     9    46 1   
    27    10    34 ar  
    28    10    47 1   
    29    11    12 1   
    30    11    20 1   
    31    11    48 1   
    32    12    13 1   
    33    12    14 1   
    34    12    49 1   
    35    13    15 ar  
    36    13    19 ar  
    37    14    29 1   
    38    14    32 2   
    39    15    16 ar  
    40    15    25 1   
    41    16    17 ar  
    42    16    22 1   
    43    17    18 ar  
    44    17    50 1   
    45    18    19 ar  
    46    18    26 1   
    47    19    51 1   
    48    21    52 1   
    49    23    53 1   
    50    23    66 1   
    51    23    67 1   
    52    24    54 1   
    53    27    55 1   
    54    27    56 1   
    55    27    57 1   
    56    28    58 1   
    57    28    59 1   
    58    28    60 1   
    59    29    30 1   
    60    29    61 1   
    61    30    31 2   
    62    30    62 1   
    63    31    32 1   
    64    31    33 1   
    65    33    34 ar  
    66    33    36 ar  
    67    34    63 1   
    68    35    36 ar  
    69    35    64 1   
    70    36    65 1   
@<TRIPOS>SUBSTRUCTURE
     1 4JY         1 TEMP              0 ****  ****    0 ROOT
