@<TRIPOS>MOLECULE
molecule
   60    63     1     0     0
SMALL
bcc


@<TRIPOS>ATOM
      1 C4           0.0000     0.0000     0.0000 c3         1 4JZ      -0.084767
      2 C7           5.6030    -0.0010     6.1400 ca         1 4JZ      -0.103500
      3 C6          -6.0540    -0.0010     2.6010 ca         1 4JZ      -0.127000
      4 C9           4.4580    -0.0010     5.3680 ca         1 4JZ      -0.153500
      5 C13          1.2580    -0.0010     2.5260 cc         1 4JZ      -0.373600
      6 C20          2.0320     0.0000     1.4210 cd         1 4JZ       0.140800
      7 C21         -1.3360    -0.0030     6.8400 cc         1 4JZ       0.075300
      8 C8           6.9480    -0.0010     4.1560 ca         1 4JZ      -0.103500
      9 C18         -6.0460    -0.0070     3.9920 ca         1 4JZ       0.025800
     10 C16          6.8470    -0.0020     5.5340 ca         1 4JZ      -0.098300
     11 C19         -3.5600    -0.0100     6.6830 cd         1 4JZ       0.340600
     12 C1           8.0940    -0.0020     6.3800 c3         1 4JZ      -0.046800
     13 C2           2.0400    -1.2480    -0.7220 c3         1 4JZ      -0.084767
     14 C3           2.0400     1.2500    -0.7210 c3         1 4JZ      -0.084767
     15 C5          -7.2760    -0.0040     1.9490 ca         1 4JZ      -0.219300
     16 C10          5.8070    -0.0010     3.3780 ca         1 4JZ      -0.153500
     17 C11         -8.4400    -0.0100     2.6950 ca         1 4JZ       0.374200
     18 C12         -2.3690    -0.0020     5.9520 cd         1 4JZ      -0.335300
     19 C14         -7.2560    -0.0140     4.6720 ca         1 4JZ       0.329200
     20 C15         -4.9510    -0.0110     6.1030 c3         1 4JZ       0.126100
     21 C17          4.5560    -0.0010     3.9830 ca         1 4JZ       0.158600
     22 C22          2.1030    -0.0010     3.6580 cc         1 4JZ       0.786500
     23 C23          0.4130    -0.0030     5.2340 c          1 4JZ       0.845500
     24 C24          1.5300     0.0000     0.0000 c3         1 4JZ      -0.013800
     25 N25         -1.8670    -0.0110     8.0830 na         1 4JZ      -0.069600
     26 N26         -8.3970    -0.0150     4.0140 nb         1 4JZ      -0.658000
     27 N27         -3.2610    -0.0140     7.9570 nc         1 4JZ      -0.519800
     28 N28          3.3450    -0.0000     1.7980 na         1 4JZ      -0.503800
     29 N29          0.0210    -0.0030     6.5230 ns         1 4JZ      -0.444100
     30 N30          1.7160    -0.0020     4.9300 nf         1 4JZ      -0.849100
     31 N31          3.3990    -0.0010     3.1980 na         1 4JZ      -0.336800
     32 O32         -0.4190    -0.0010     4.3440 o          1 4JZ      -0.665100
     33 O33         -4.8720    -0.0060     4.6750 os         1 4JZ      -0.313900
     34 H4          -0.3610    -0.8630     0.5450 hc         1 4JZ       0.045256
     35 H4A         -0.3610     0.9040     0.4750 hc         1 4JZ       0.045256
     36 H4B         -0.3610    -0.0410    -1.0210 hc         1 4JZ       0.045256
     37 H7           5.5280    -0.0010     7.2210 ha         1 4JZ       0.137000
     38 H9           3.4840    -0.0010     5.8420 ha         1 4JZ       0.158500
     39 H13          0.3340     0.5640     2.5400 ha         1 4JZ       0.208000
     40 H8           7.9240    -0.0020     3.6850 ha         1 4JZ       0.137000
     41 H1           8.2210    -0.9760     6.8370 hc         1 4JZ       0.044700
     42 H1A          8.9530     0.2190     5.7580 hc         1 4JZ       0.044700
     43 H1B          8.0060     0.7510     7.1540 hc         1 4JZ       0.044700
     44 H2           3.1090    -1.1650    -0.8760 hc         1 4JZ       0.045256
     45 H2A          1.5440    -1.3390    -1.6810 hc         1 4JZ       0.045256
     46 H2B          1.8290    -2.1250    -0.1220 hc         1 4JZ       0.045256
     47 H3           1.5330     1.3490    -1.6730 hc         1 4JZ       0.045256
     48 H3A          3.1060     1.1620    -0.8870 hc         1 4JZ       0.045256
     49 H3B          1.8400     2.1240    -0.1130 hc         1 4JZ       0.045256
     50 H5          -7.3190     0.0010     0.8670 ha         1 4JZ       0.139000
     51 H10          5.8870    -0.0010     2.2970 ha         1 4JZ       0.158500
     52 H11         -9.3980    -0.0110     2.1910 h4         1 4JZ       0.022100
     53 H12         -2.2820     0.0030     4.8720 ha         1 4JZ       0.211000
     54 H14         -7.2620    -0.0180     5.7550 h4         1 4JZ       0.027100
     55 H15         -5.4780    -0.8980     6.4320 h1         1 4JZ       0.052700
     56 H15A        -5.4830     0.8710     6.4380 h1         1 4JZ       0.052700
     57 HN25        -1.3540    -0.0130     8.9430 hn         1 4JZ       0.322700
     58 HN28         4.1320    -0.0000     1.1800 hn         1 4JZ       0.493800
     59 HN29         0.7050    -0.0060     7.2540 hn         1 4JZ       0.324500
     60 H6          -5.1260     0.0040     2.0420 ha         1 4JZ       0.152000
@<TRIPOS>BOND
     1     1    24 1
     2     2     4 ar
     3     2    10 ar
     4     3     9 ar
     5     3    15 ar
     6     4    21 ar
     7     5     6 2
     8     5    22 1
     9     6    24 1
    10     6    28 1
    11     7    18 2
    12     7    25 1
    13     7    29 1
    14     8    10 ar
    15     8    16 ar
    16     9    19 ar
    17     9    33 1
    18    10    12 1
    19    11    18 1
    20    11    20 1
    21    11    27 2
    22    13    24 1
    23    14    24 1
    24    15    17 ar
    25    16    21 ar
    26    17    26 ar
    27    19    26 ar
    28    20    33 1
    29    21    31 1
    30    22    30 2
    31    22    31 1
    32    23    29 1
    33    23    30 1
    34    23    32 2
    35    25    27 1
    36    28    31 1
    37     1    34 1
    38     1    35 1
    39     1    36 1
    40     2    37 1
    41     3    60 1
    42     4    38 1
    43     5    39 1
    44     8    40 1
    45    12    41 1
    46    12    42 1
    47    12    43 1
    48    13    44 1
    49    13    45 1
    50    13    46 1
    51    14    47 1
    52    14    48 1
    53    14    49 1
    54    15    50 1
    55    16    51 1
    56    17    52 1
    57    18    53 1
    58    19    54 1
    59    20    55 1
    60    20    56 1
    61    25    57 1
    62    28    58 1
    63    29    59 1
@<TRIPOS>SUBSTRUCTURE
     1 4JZ         1 TEMP              0 ****  ****    0 ROOT
