@<TRIPOS>MOLECULE
4JZ
   60    63     1     0     0
SMALL
bcc


@<TRIPOS>ATOM
      1 C4           0.0000     0.0000     0.0000 c3         1 4JZ       0.004567
      2 C7           5.6030    -0.0010     6.1400 ca         1 4JZ      -0.073500
      3 C6          -6.0540    -0.0010     2.6010 ca         1 4JZ      -0.115000
      4 C9           4.4580    -0.0010     5.3680 ca         1 4JZ      -0.134000
      5 C13          1.2580    -0.0010     2.5260 cc         1 4JZ      -0.354600
      6 C20          2.0320     0.0000     1.4210 cd         1 4JZ      -0.023200
      7 C21         -1.3360    -0.0030     6.8400 cc         1 4JZ      -0.241700
      8 C8           6.9480    -0.0010     4.1560 ca         1 4JZ      -0.073500
      9 C18         -6.0460    -0.0070     3.9920 ca         1 4JZ       0.041800
     10 C16          6.8470    -0.0020     5.5340 ca         1 4JZ      -0.100300
     11 C19         -3.5600    -0.0100     6.6830 cd         1 4JZ       0.357600
     12 C1           8.0940    -0.0020     6.3800 c3         1 4JZ       0.065200
     13 C2           2.0400    -1.2480    -0.7220 c3         1 4JZ       0.004567
     14 C3           2.0400     1.2500    -0.7210 c3         1 4JZ       0.004567
     15 C5          -7.2760    -0.0040     1.9490 ca         1 4JZ      -0.181300
     16 C10          5.8070    -0.0010     3.3780 ca         1 4JZ      -0.134000
     17 C11         -8.4400    -0.0100     2.6950 ca         1 4JZ       0.350200
     18 C12         -2.3690    -0.0020     5.9520 cd         1 4JZ      -0.331300
     19 C14         -7.2560    -0.0140     4.6720 ca         1 4JZ       0.293200
     20 C15         -4.9510    -0.0110     6.1030 c3         1 4JZ       0.197100
     21 C17          4.5560    -0.0010     3.9830 ca         1 4JZ       0.000600
     22 C22          2.1030    -0.0010     3.6580 cc         1 4JZ       0.601500
     23 C23          0.4130    -0.0030     5.2340 c          1 4JZ       0.710500
     24 C24          1.5300     0.0000     0.0000 c3         1 4JZ       0.004200
     25 N25         -1.8670    -0.0110     8.0830 na         1 4JZ       0.414400
     26 N26         -8.3970    -0.0150     4.0140 nb         1 4JZ      -0.543000
     27 N27         -3.2610    -0.0140     7.9570 nc         1 4JZ      -0.670800
     28 N28          3.3450    -0.0000     1.7980 na         1 4JZ      -0.185800
     29 N29          0.0210    -0.0030     6.5230 ns         1 4JZ       0.023900
     30 N30          1.7160    -0.0020     4.9300 nf         1 4JZ      -0.771100
     31 N31          3.3990    -0.0010     3.1980 na         1 4JZ      -0.023800
     32 O32         -0.4190    -0.0010     4.3440 o          1 4JZ      -0.706100
     33 O33         -4.8720    -0.0060     4.6750 os         1 4JZ      -0.288900
     34 H4          -0.3610    -0.8640     0.5450 hc         1 4JZ       0.012033
     35 H4A         -0.3610    -0.0400    -1.0210 hc         1 4JZ       0.012033
     36 H4B         -0.3610     0.9040     0.4760 hc         1 4JZ       0.012033
     37 H7           5.5280    -0.0010     7.2210 ha         1 4JZ       0.109000
     38 H9           3.4840    -0.0010     5.8420 ha         1 4JZ       0.135500
     39 H13          0.3340     0.5640     2.5400 ha         1 4JZ       0.194000
     40 H8           7.9240    -0.0020     3.6850 ha         1 4JZ       0.109000
     41 H1           7.8200     0.0070     7.4280 hc         1 4JZ       0.008700
     42 H1A          8.6840     0.8790     6.1540 hc         1 4JZ       0.008700
     43 H1B          8.6760    -0.8900     6.1670 hc         1 4JZ       0.008700
     44 H2           1.8300    -2.1240    -0.1210 hc         1 4JZ       0.012033
     45 H2A          3.1090    -1.1640    -0.8770 hc         1 4JZ       0.012033
     46 H2B          1.5430    -1.3390    -1.6800 hc         1 4JZ       0.012033
     47 H3           1.5310     1.3500    -1.6720 hc         1 4JZ       0.012033
     48 H3A          1.8420     2.1240    -0.1120 hc         1 4JZ       0.012033
     49 H3B          3.1060     1.1610    -0.8890 hc         1 4JZ       0.012033
     50 H5          -7.3190     0.0010     0.8670 ha         1 4JZ       0.110000
     51 H10          5.8870    -0.0010     2.2970 ha         1 4JZ       0.135500
     52 H11         -9.3980    -0.0110     2.1910 h4         1 4JZ      -0.019900
     53 H12         -2.2820     0.0030     4.8720 ha         1 4JZ       0.200000
     54 H14         -7.2620    -0.0180     5.7550 h4         1 4JZ      -0.003900
     55 H15         -5.4830     0.8710     6.4380 h1         1 4JZ       0.011700
     56 H15A        -5.4780    -0.8980     6.4320 h1         1 4JZ       0.011700
     57 HN25        -1.3540    -0.0130     8.9430 hn         1 4JZ       0.143700
     58 HN28         4.1320    -0.0000     1.1800 hn         1 4JZ       0.330800
     59 HN29         0.7050    -0.0040     7.2540 hn         1 4JZ       0.156500
     60 H6          -5.1260     0.0040     2.0420 ha         1 4JZ       0.122000
@<TRIPOS>BOND
     1     1    24 1   
     2     1    34 1   
     3     1    35 1   
     4     1    36 1   
     5     2     4 ar  
     6     2    10 ar  
     7     2    37 1   
     8     3     9 ar  
     9     3    15 ar  
    10     3    60 1   
    11     4    21 ar  
    12     4    38 1   
    13     5     6 2   
    14     5    22 1   
    15     5    39 1   
    16     6    24 1   
    17     6    28 1   
    18     7    18 2   
    19     7    25 1   
    20     7    29 1   
    21     8    10 ar  
    22     8    16 ar  
    23     8    40 1   
    24     9    19 ar  
    25     9    33 1   
    26    10    12 1   
    27    11    18 1   
    28    11    20 1   
    29    11    27 2   
    30    12    41 1   
    31    12    42 1   
    32    12    43 1   
    33    13    24 1   
    34    13    44 1   
    35    13    45 1   
    36    13    46 1   
    37    14    24 1   
    38    14    47 1   
    39    14    48 1   
    40    14    49 1   
    41    15    17 ar  
    42    15    50 1   
    43    16    21 ar  
    44    16    51 1   
    45    17    26 ar  
    46    17    52 1   
    47    18    53 1   
    48    19    26 ar  
    49    19    54 1   
    50    20    33 1   
    51    20    55 1   
    52    20    56 1   
    53    21    31 1   
    54    22    30 2   
    55    22    31 1   
    56    23    29 1   
    57    23    30 1   
    58    23    32 2   
    59    25    27 1   
    60    25    57 1   
    61    28    31 1   
    62    28    58 1   
    63    29    59 1   
@<TRIPOS>SUBSTRUCTURE
     1 4JZ         1 TEMP              0 ****  ****    0 ROOT
