@<TRIPOS>MOLECULE
molecule
   39    43     1     0     0
SMALL
bcc


@<TRIPOS>ATOM
      1 N23         -1.2690     0.0050    -2.2320 n1         1 4K0      -0.340800
      2 C22         -0.7170     0.0000    -1.2390 cg         1 4K0       0.228800
      3 C19          0.0000     0.0000     0.0000 ca         1 4K0       0.007000
      4 C20          1.3970     0.0000     0.0000 ca         1 4K0      -0.094000
      5 C18         -0.6980     0.0070     1.2110 ca         1 4K0      -0.094000
      6 C17         -0.0080     0.0070     2.4030 ca         1 4K0      -0.099000
      7 C16          1.3870     0.0010     2.4010 ca         1 4K0      -0.137500
      8 C21          2.0850     0.0000     1.1930 ca         1 4K0      -0.099000
      9 C12          2.1290     0.0020     3.6850 cc         1 4K0       0.345500
     10 N15          3.4480    -0.0040     3.6870 nd         1 4K0      -0.443800
     11 N7           4.1210    -0.0020     4.9120 na         1 4K0      -0.070500
     12 C8           3.4040     0.0050     6.0870 cd         1 4K0       0.288500
     13 N14          2.0660     0.0100     6.0520 nd         1 4K0      -0.567000
     14 C13          1.4260     0.0140     4.9100 cc         1 4K0       0.321900
     15 C11          5.4300    -0.0060     5.2710 cd         1 4K0       0.367800
     16 N10          5.4790    -0.0010     6.5780 nc         1 4K0      -0.343700
     17 N9           4.2900     0.0050     7.0700 nc         1 4K0      -0.025000
     18 C24          6.6110    -0.0160     4.3350 c3         1 4K0       0.009500
     19 C25          7.0110     1.4030     4.0160 cc         1 4K0      -0.163400
     20 C26          6.6240     2.1230     2.9510 cd         1 4K0      -0.075100
     21 C1           7.8890     2.2610     4.8130 ca         1 4K0      -0.210100
     22 C6           8.5900     2.0960     6.0100 ca         1 4K0      -0.037000
     23 C5           9.3420     3.1600     6.4730 ca         1 4K0      -0.282300
     24 C2           7.9680     3.4870     4.1260 ca         1 4K0       0.464800
     25 N27          7.1890     3.3690     3.0010 na         1 4K0      -0.279100
     26 N3           8.7070     4.4740     4.6200 nb         1 4K0      -0.716000
     27 C4           9.3750     4.3390     5.7450 ca         1 4K0       0.451200
     28 H20          1.9390     0.0040    -0.9380 ha         1 4K0       0.151500
     29 H18         -1.7810     0.0170     1.2120 ha         1 4K0       0.151500
     30 H21          3.1680    -0.0000     1.1940 ha         1 4K0       0.150500
     31 H17         -0.5480     0.0120     3.3410 ha         1 4K0       0.150500
     32 H13          0.3430     0.0240     4.9130 h4         1 4K0       0.049100
     33 H241         6.3270    -0.4860     3.4010 hc         1 4K0       0.074700
     34 H242         7.4250    -0.5710     4.7850 hc         1 4K0       0.074700
     35 H26          5.9860     1.7760     2.1470 h4         1 4K0       0.169000
     36 H27          7.0620     4.0990     2.3280 hn         1 4K0       0.306700
     37 H6           8.5350     1.1560     6.5460 ha         1 4K0       0.148000
     38 H5           9.8990     3.0680     7.3980 ha         1 4K0       0.141000
     39 H4           9.9610     5.1780     6.1000 h4         1 4K0       0.024100
@<TRIPOS>BOND
     1     1     2 3   
     2     2     3 1   
     3     3     4 ar  
     4     3     5 ar  
     5     4     8 ar  
     6     5     6 ar  
     7     6     7 ar  
     8     7     8 ar  
     9     7     9 1   
    10     9    10 2   
    11     9    14 1   
    12    10    11 1   
    13    11    12 1   
    14    11    15 1   
    15    12    13 1   
    16    12    17 2   
    17    13    14 2   
    18    15    16 2   
    19    15    18 1   
    20    16    17 1   
    21    18    19 1   
    22    19    20 2   
    23    19    21 1   
    24    20    25 1   
    25    21    22 ar  
    26    21    24 ar  
    27    22    23 ar  
    28    23    27 ar  
    29    24    25 1   
    30    24    26 ar  
    31    26    27 ar  
    32     4    28 1   
    33     5    29 1   
    34     8    30 1   
    35     6    31 1   
    36    14    32 1   
    37    18    33 1   
    38    18    34 1   
    39    20    35 1   
    40    25    36 1   
    41    22    37 1   
    42    23    38 1   
    43    27    39 1   
@<TRIPOS>SUBSTRUCTURE
     1 4K0         1 TEMP              0 ****  ****    0 ROOT
