@<TRIPOS>MOLECULE
molecule
   72    75     1     0     0
SMALL
bcc


@<TRIPOS>ATOM
      1 C13          0.0000     0.0000     0.0000 ca         1 4K1      -0.058000
      2 C18          4.3290    -6.1270     0.1200 c3         1 4K1       0.131400
      3 C17         -2.1750     0.0030     1.2130 ce         1 4K1       0.547800
      4 C16          1.3820    -0.0110     2.4120 ca         1 4K1      -0.222500
      5 C15          0.0050    -0.0070     2.4170 ca         1 4K1      -0.058000
      6 C19          4.1420    -7.1690     1.2240 c3         1 4K1      -0.092100
      7 C21          7.6600     1.0070     0.7290 cc         1 4K1       0.321800
      8 C22          7.2550     2.0930     0.0160 cd         1 4K1      -0.181600
      9 C11          2.0750     0.0000     1.2040 ca         1 4K1       0.276600
     10 C12          1.3770     0.0000     0.0000 ca         1 4K1      -0.222500
     11 C34         11.1710     0.7560     3.2070 ca         1 4K1      -0.108000
     12 C27          6.0560    -4.5210    -5.3890 c3         1 4K1      -0.106100
     13 C33         11.1960     0.7600     1.8220 ca         1 4K1      -0.048000
     14 C1           4.6040    -1.6280    -1.9190 ca         1 4K1       0.070900
     15 C2           4.3360    -1.4020    -0.5810 ca         1 4K1      -0.088300
     16 C3           4.1950    -2.4690     0.2860 ca         1 4K1      -0.161000
     17 C4           4.3230    -3.7680    -0.1830 ca         1 4K1       0.178100
     18 C5           4.5910    -3.9970    -1.5240 ca         1 4K1      -0.283000
     19 C6           4.7320    -2.9280    -2.3930 ca         1 4K1       0.168100
     20 O7           4.1850    -4.8170     0.6720 os         1 4K1      -0.330900
     21 C8           4.1970     0.0080    -0.0690 c3         1 4K1       0.302500
     22 N9           3.4670    -0.0040     1.2020 nu         1 4K1      -0.784600
     23 C10          5.5660     0.6030     0.1440 cd         1 4K1       0.390800
     24 C14         -0.6960    -0.0010     1.2100 ca         1 4K1      -0.232900
     25 N20          6.6260     0.1430     0.7890 nc         1 4K1      -0.664000
     26 N23          5.9610     1.8600    -0.3500 na         1 4K1      -0.292900
     27 F24          4.7350    -0.5840    -2.7670 f          1 4K1      -0.135900
     28 O25          4.9900    -3.1490    -3.7100 os         1 4K1      -0.306900
     29 C26          5.2250    -4.5020    -4.1060 c3         1 4K1       0.134100
     30 C28          3.8860    -5.2000    -4.3540 c3         1 4K1      -0.106100
     31 C29          8.8070     1.0050     1.7690 ca         1 4K1       0.008500
     32 N30         -2.8290     0.0070     0.0860 n2         1 4K1      -0.693100
     33 N31         -2.8620     0.0010     2.4080 nz         1 4K1      -0.799600
     34 C32         10.0250     0.8830     1.1020 ca         1 4K1      -0.115000
     35 C35          9.9770     0.8760     3.8860 ca         1 4K1      -0.113000
     36 C36          8.7820     1.0020     3.1760 ca         1 4K1      -0.196600
     37 C37          7.5000     1.1290     3.8960 c          1 4K1       0.514700
     38 N38          7.4650     0.9980     5.2380 nz         1 4K1      -0.680400
     39 O39          6.4770     1.3530     3.2790 o          1 4K1      -0.432100
     40 H45         -0.4420     0.0730    -0.9870 ha         1 4K1       0.158000
     41 H49          3.5920    -6.2890    -0.6580 h1         1 4K1       0.040200
     42 H48          5.3230    -6.2200    -0.3000 h1         1 4K1       0.040200
     43 H47          1.9270    -0.0190     3.3480 ha         1 4K1       0.160500
     44 H46         -0.2030     0.0830     3.4760 ha         1 4K1       0.158000
     45 H52          4.1490    -8.1610     0.7900 hc         1 4K1       0.053033
     46 H51          3.1960    -7.0000     1.7240 hc         1 4K1       0.053033
     47 H50          4.9490    -7.0820     1.9420 hc         1 4K1       0.053033
     48 H53          7.8450     2.9710    -0.2180 h4         1 4K1       0.196000
     49 H44          1.4230     0.5370    -0.9400 ha         1 4K1       0.160500
     50 H67         12.0970     0.6580     3.7610 ha         1 4K1       0.166000
     51 H58          5.5090    -4.0230    -6.1810 hc         1 4K1       0.052700
     52 H56          6.2520    -5.5470    -5.6770 hc         1 4K1       0.052700
     53 H57          6.9940    -4.0070    -5.2190 hc         1 4K1       0.052700
     54 H66         12.1400     0.6650     1.3000 ha         1 4K1       0.169000
     55 H40          3.9860    -2.2910     1.3340 ha         1 4K1       0.142000
     56 H41          4.6910    -5.0110    -1.8910 ha         1 4K1       0.163000
     57 H42          3.6530     0.6030    -0.7920 h1         1 4K1       0.087700
     58 H43          3.9690     0.0210     2.0670 hn         1 4K1       0.454800
     59 H54          5.3770     2.4720    -0.8850 hn         1 4K1       0.312700
     60 H55          5.7620    -5.0200    -3.3200 h1         1 4K1       0.044700
     61 H61          3.1220    -4.4580    -4.5460 hc         1 4K1       0.052700
     62 H59          3.6140    -5.7810    -3.4810 hc         1 4K1       0.052700
     63 H60          3.9750    -5.8570    -5.2110 hc         1 4K1       0.052700
     64 H62         -3.8300     0.0100     0.0860 hn         1 4K1       0.433400
     65 H64         -3.8460    -0.0050     2.2270 hn         1 4K1       0.462800
     66 H65         10.0520     0.8860     0.0190 ha         1 4K1       0.176000
     67 H68          9.9670     0.8730     4.9690 ha         1 4K1       0.113000
     68 H70          6.5170     1.0530     5.5540 hn         1 4K1       0.475800
     69 H69          8.0000     1.7320     5.6590 hn         1 4K1       0.475800
     70 H1          -2.6140    -0.8130     2.9350 hn         1 4K1       0.462800
     71 H313        -2.6240     0.8210     2.9310 hn         1 4K1       0.462800
     72 H383         7.8770     0.1240     5.4980 hn         1 4K1       0.475800
@<TRIPOS>BOND
     1    11    35 ar  
     2    11    13 ar  
     3    35    36 ar  
     4    38    37 1   
     5    13    34 ar  
     6    36    37 1   
     7    36    31 ar  
     8    37    39 2   
     9    34    31 ar  
    10    31     7 1   
    11     7     8 2   
    12     7    25 1   
    13     6     2 1   
    14     8    26 1   
    15    25    23 2   
    16     2    20 1   
    17    23    26 1   
    18    23    21 1   
    19    20    17 1   
    20    16    17 ar  
    21    16    15 ar  
    22    17    18 ar  
    23    22    21 1   
    24    22     9 1   
    25    21    15 1   
    26    15    14 ar  
    27    10     9 ar  
    28    10     1 ar  
    29    18    19 ar  
    30     9     4 ar  
    31    14    19 ar  
    32    14    27 1   
    33     1    24 ar  
    34    19    28 1   
    35     4     5 ar  
    36    28    29 1   
    37    24     5 ar  
    38    24     3 1   
    39    30    29 1   
    40    29    12 1   
    41    32     3 2   
    42     3    33 1   
    43     1    40 1   
    44     2    41 1   
    45     2    42 1   
    46     4    43 1   
    47     5    44 1   
    48     6    45 1   
    49     6    46 1   
    50     6    47 1   
    51     8    48 1   
    52    10    49 1   
    53    11    50 1   
    54    12    51 1   
    55    12    52 1   
    56    12    53 1   
    57    13    54 1   
    58    16    55 1   
    59    18    56 1   
    60    21    57 1   
    61    22    58 1   
    62    26    59 1   
    63    29    60 1   
    64    30    61 1   
    65    30    62 1   
    66    30    63 1   
    67    32    64 1   
    68    33    65 1   
    69    34    66 1   
    70    35    67 1   
    71    38    68 1   
    72    38    69 1   
    73    33    70 1   
    74    71    33 1   
    75    72    38 1   
@<TRIPOS>SUBSTRUCTURE
     1 4K1         1 TEMP              0 ****  ****    0 ROOT
