@<TRIPOS>MOLECULE
4K1
   72    75     1     0     0
SMALL
bcc


@<TRIPOS>ATOM
      1 C13          0.0000     0.0000     0.0000 ca         1 4K1      -0.054500
      2 C18          4.3290    -6.1270     0.1200 c3         1 4K1       0.200400
      3 C17         -2.1750     0.0030     1.2130 ce         1 4K1       0.217800
      4 C16          1.3820    -0.0110     2.4120 ca         1 4K1      -0.197500
      5 C15          0.0050    -0.0070     2.4170 ca         1 4K1      -0.054500
      6 C19          4.1420    -7.1690     1.2240 c3         1 4K1       0.002900
      7 C21          7.6600     1.0070     0.7290 cc         1 4K1       0.297800
      8 C22          7.2550     2.0930     0.0160 cd         1 4K1      -0.349600
      9 C11          2.0750     0.0000     1.2040 ca         1 4K1       0.131600
     10 C12          1.3770     0.0000     0.0000 ca         1 4K1      -0.197500
     11 C34         11.1710     0.7560     3.2070 ca         1 4K1      -0.076000
     12 C27          6.0560    -4.5210    -5.3890 c3         1 4K1      -0.016100
     13 C33         11.1960     0.7600     1.8220 ca         1 4K1      -0.004000
     14 C1           4.6040    -1.6280    -1.9190 ca         1 4K1       0.032900
     15 C2           4.3360    -1.4020    -0.5810 ca         1 4K1      -0.084300
     16 C3           4.1950    -2.4690     0.2860 ca         1 4K1      -0.164000
     17 C4           4.3230    -3.7680    -0.1830 ca         1 4K1       0.203100
     18 C5           4.5910    -3.9970    -1.5240 ca         1 4K1      -0.294000
     19 C6           4.7320    -2.9280    -2.3930 ca         1 4K1       0.195100
     20 O7           4.1850    -4.8170     0.6720 os         1 4K1      -0.309900
     21 C8           4.1970     0.0080    -0.0690 c3         1 4K1       0.215500
     22 N9           3.4670    -0.0040     1.2020 nu         1 4K1      -0.360600
     23 C10          5.5660     0.6030     0.1440 cd         1 4K1       0.159800
     24 C14         -0.6960    -0.0010     1.2100 ca         1 4K1      -0.251900
     25 N20          6.6260     0.1430     0.7890 nc         1 4K1      -0.564000
     26 N23          5.9610     1.8600    -0.3500 na         1 4K1       0.257100
     27 F24          4.7350    -0.5840    -2.7670 f          1 4K1      -0.123900
     28 O25          4.9900    -3.1490    -3.7100 os         1 4K1      -0.282900
     29 C26          5.2250    -4.5020    -4.1060 c3         1 4K1       0.163100
     30 C28          3.8860    -5.2000    -4.3540 c3         1 4K1      -0.016100
     31 C29          8.8070     1.0050     1.7690 ca         1 4K1       0.033500
     32 N30         -2.8290     0.0070     0.0860 n2         1 4K1      -0.499100
     33 N31         -2.8620     0.0010     2.4080 nz         1 4K1       0.194400
     34 C32         10.0250     0.8830     1.1020 ca         1 4K1      -0.098000
     35 C35          9.9770     0.8760     3.8860 ca         1 4K1      -0.085000
     36 C36          8.7820     1.0020     3.1760 ca         1 4K1      -0.222600
     37 C37          7.5000     1.1290     3.8960 c          1 4K1       0.371700
     38 N38          7.4650     0.9980     5.2380 nz         1 4K1       0.194600
     39 O39          6.4770     1.3530     3.2790 o          1 4K1      -0.457100
     40 H45         -0.3210     0.0780    -1.0320 ha         1 4K1       0.125000
     41 H49          5.3230    -6.2200    -0.3010 h1         1 4K1       0.004200
     42 H48          3.5910    -6.2890    -0.6570 h1         1 4K1       0.004200
     43 H47          1.9270    -0.0250     3.3480 ha         1 4K1       0.134500
     44 H46         -0.1880     0.0790     3.4800 ha         1 4K1       0.125000
     45 H52          4.7510    -6.9010     2.0790 hc         1 4K1       0.015367
     46 H51          3.1000    -7.2000     1.5190 hc         1 4K1       0.015367
     47 H50          4.4430    -8.1420     0.8570 hc         1 4K1       0.015367
     48 H53          7.8450     2.9710    -0.2180 h4         1 4K1       0.168000
     49 H44          1.4490     0.5570    -0.9260 ha         1 4K1       0.134500
     50 H67         12.0970     0.6580     3.7610 ha         1 4K1       0.131000
     51 H58          5.5300    -3.9810    -6.1670 hc         1 4K1       0.018700
     52 H56          7.0140    -4.0500    -5.2060 hc         1 4K1       0.018700
     53 H57          6.2110    -5.5460    -5.7030 hc         1 4K1       0.018700
     54 H66         12.1400     0.6650     1.3000 ha         1 4K1       0.129000
     55 H40          3.9860    -2.2910     1.3340 ha         1 4K1       0.116000
     56 H41          4.6910    -5.0110    -1.8910 ha         1 4K1       0.159000
     57 H42          3.6530     0.6030    -0.7920 h1         1 4K1       0.050700
     58 H43          3.9690     0.0260     2.0670 hn         1 4K1       0.302800
     59 H54          5.3770     2.4720    -0.8850 hn         1 4K1       0.134700
     60 H55          5.7620    -5.0200    -3.3200 h1         1 4K1       0.016700
     61 H61          3.6890    -5.2340    -5.4190 hc         1 4K1       0.018700
     62 H59          3.0950    -4.6520    -3.8570 hc         1 4K1       0.018700
     63 H60          3.9270    -6.2090    -3.9620 hc         1 4K1       0.018700
     64 H62         -2.3300     0.0080    -0.7820 hn         1 4K1       0.378400
     65 H64         -3.8430    -0.0760     2.2280 hn         1 4K1       0.218800
     66 H65         10.0520     0.8860     0.0190 ha         1 4K1       0.141000
     67 H68          9.9670     0.8730     4.9690 ha         1 4K1       0.084000
     68 H70          8.0090     1.7260     5.6580 hn         1 4K1       0.246800
     69 H69          6.5180     1.0630     5.5550 hn         1 4K1       0.246800
     70 H1          -2.6780     0.8540     2.8990 hn         1 4K1       0.218800
     71 H313        -2.5620    -0.7750     2.9640 hn         1 4K1       0.218800
     72 H383         7.8890     0.1300     5.4990 hn         1 4K1       0.246800
@<TRIPOS>BOND
     1     1    10 ar  
     2     1    24 ar  
     3     1    40 1   
     4     2     6 1   
     5     2    20 1   
     6     2    41 1   
     7     2    42 1   
     8     3    24 1   
     9     3    32 2   
    10     3    33 1   
    11     4     5 ar  
    12     4     9 ar  
    13     4    43 1   
    14     5    24 ar  
    15     5    44 1   
    16     6    45 1   
    17     6    46 1   
    18     6    47 1   
    19     7     8 2   
    20     7    25 1   
    21     7    31 1   
    22     8    26 1   
    23     8    48 1   
    24     9    10 ar  
    25     9    22 1   
    26    10    49 1   
    27    11    13 ar  
    28    11    35 ar  
    29    11    50 1   
    30    12    29 1   
    31    12    51 1   
    32    12    52 1   
    33    12    53 1   
    34    13    34 ar  
    35    13    54 1   
    36    14    15 ar  
    37    14    19 ar  
    38    14    27 1   
    39    15    16 ar  
    40    15    21 1   
    41    16    17 ar  
    42    16    55 1   
    43    17    18 ar  
    44    17    20 1   
    45    18    19 ar  
    46    18    56 1   
    47    19    28 1   
    48    21    22 1   
    49    21    23 1   
    50    21    57 1   
    51    22    58 1   
    52    23    25 2   
    53    23    26 1   
    54    26    59 1   
    55    28    29 1   
    56    29    30 1   
    57    29    60 1   
    58    30    61 1   
    59    30    62 1   
    60    30    63 1   
    61    31    34 ar  
    62    31    36 ar  
    63    32    64 1   
    64    33    65 1   
    65    33    70 1   
    66    33    71 1   
    67    34    66 1   
    68    35    36 ar  
    69    35    67 1   
    70    36    37 1   
    71    37    38 1   
    72    37    39 2   
    73    38    68 1   
    74    38    69 1   
    75    38    72 1   
@<TRIPOS>SUBSTRUCTURE
     1 4K1         1 TEMP              0 ****  ****    0 ROOT
