@<TRIPOS>MOLECULE
4K2
   35    37     1     0     0
SMALL
bcc


@<TRIPOS>ATOM
      1 C12          0.0000     0.0000     0.0000 ca         1 4K2      -0.082000
      2 C18          4.0760    -0.0000     2.4800 ca         1 4K2      -0.220300
      3 C14          1.3620     0.0000     0.0000 ca         1 4K2      -0.088000
      4 C15          3.4650     0.0000     1.2580 ca         1 4K2      -0.055000
      5 C11         -0.7160     0.0060     1.1950 ca         1 4K2      -0.106000
      6 C13          3.3060    -0.0000     3.6420 ca         1 4K2       0.410200
      7 C8           2.0580     0.0000     1.2190 ca         1 4K2      -0.135300
      8 C5           1.3370     0.0010     2.4380 ca         1 4K2       0.364600
      9 C4          -0.0720     0.0120     2.3990 ca         1 4K2       0.102800
     10 C1          -0.9580     1.2000     4.1670 c          1 4K2       0.700100
     11 C19         -1.7820     1.2560     8.1920 c3         1 4K2      -0.027400
     12 C16         -1.1640     2.4510     7.4620 c3         1 4K2      -0.042900
     13 C17         -1.4430    -0.0330     7.4390 c3         1 4K2      -0.042900
     14 C9          -1.7540     2.5450     6.0520 c3         1 4K2       0.054500
     15 C10         -2.0380     0.0330     6.0290 c3         1 4K2       0.054500
     16 N6           1.9950     0.0000     3.6010 nb         1 4K2      -0.559000
     17 N2          -1.5600     1.2570     5.3710 n          1 4K2      -0.131800
     18 O7          -0.5700     2.2200     3.6340 o          1 4K2      -0.648000
     19 O3          -0.7870     0.0130     3.5560 os         1 4K2      -0.321200
     20 H1          -0.5340    -0.0040    -0.9420 ha         1 4K2       0.104000
     21 H2           5.1570    -0.0010     2.5460 ha         1 4K2       0.111000
     22 H3           1.9050    -0.0050    -0.9370 ha         1 4K2       0.107000
     23 H4           4.0480     0.0000     0.3450 ha         1 4K2       0.111000
     24 H5          -1.7990     0.0060     1.1690 ha         1 4K2       0.114000
     25 H6           3.8040    -0.0000     4.6040 h4         1 4K2      -0.023900
     26 H8          -1.3810     1.2020     9.1960 hc         1 4K2       0.015700
     27 H9          -0.0910     2.3170     7.3950 hc         1 4K2       0.023450
     28 H10         -1.3860     3.3600     8.0070 hc         1 4K2       0.023450
     29 H11         -0.3670    -0.1400     7.3730 hc         1 4K2       0.023450
     30 H12         -1.8640    -0.8800     7.9680 hc         1 4K2       0.023450
     31 H13         -2.8130     2.7650     6.1170 h1         1 4K2       0.031450
     32 H14         -1.2480     3.3270     5.4990 h1         1 4K2       0.031450
     33 H15         -1.7180    -0.8320     5.4610 h1         1 4K2       0.031450
     34 H16         -3.1190     0.0530     6.0920 h1         1 4K2       0.031450
     35 H7          -2.8570     1.3770     8.2330 hc         1 4K2       0.015700
@<TRIPOS>BOND
     1     1     3 ar  
     2     1     5 ar  
     3     1    20 1   
     4     2     4 ar  
     5     2     6 ar  
     6     2    21 1   
     7     3     7 ar  
     8     3    22 1   
     9     4     7 ar  
    10     4    23 1   
    11     5     9 ar  
    12     5    24 1   
    13     6    16 ar  
    14     6    25 1   
    15     7     8 ar  
    16     8     9 ar  
    17     8    16 ar  
    18     9    19 1   
    19    10    17 1   
    20    10    18 2   
    21    10    19 1   
    22    11    12 1   
    23    11    13 1   
    24    11    26 1   
    25    11    35 1   
    26    12    14 1   
    27    12    27 1   
    28    12    28 1   
    29    13    15 1   
    30    13    29 1   
    31    13    30 1   
    32    14    17 1   
    33    14    31 1   
    34    14    32 1   
    35    15    17 1   
    36    15    33 1   
    37    15    34 1   
@<TRIPOS>SUBSTRUCTURE
     1 4K2         1 TEMP              0 ****  ****    0 ROOT
