@<TRIPOS>MOLECULE
4K3
   23    23     1     0     0
SMALL
bcc


@<TRIPOS>ATOM
      1 C12          0.0000     0.0000     0.0000 ca         1 4K3      -0.113000
      2 C10          1.3830     0.0000     0.0000 ca         1 4K3      -0.082000
      3 C11         -0.6940    -0.0020     1.1960 ca         1 4K3      -0.082000
      4 C9           2.0760     0.0000     1.1940 ca         1 4K3      -0.116500
      5 C8          -0.0070    -0.0030     2.3940 ca         1 4K3      -0.116500
      6 C6           1.3820    -0.0010     2.3980 ca         1 4K3      -0.092400
      7 C3           4.0710     0.5380     4.9750 c3         1 4K3      -0.078400
      8 C5           5.3580     1.3510     4.8240 c3         1 4K3       0.118700
      9 C2           3.2620     0.6380     3.7070 c          1 4K3       0.559100
     10 N1           2.0800    -0.0030     3.6090 ns         1 4K3      -0.030100
     11 O7           3.6740     1.2950     2.7750 o          1 4K3      -0.635100
     12 S4           6.3320     1.2310     6.3490 sh         1 4K3      -0.421900
     13 H1          -0.5410     0.0000    -0.9390 ha         1 4K3       0.103000
     14 H2           1.9240     0.0010    -0.9390 ha         1 4K3       0.103000
     15 H3          -1.7770    -0.0030     1.1930 ha         1 4K3       0.103000
     16 H4           3.1590     0.0010     1.1930 ha         1 4K3       0.121000
     17 H5          -0.5510    -0.0040     3.3310 ha         1 4K3       0.121000
     18 H6           4.3190    -0.4990     5.1640 hc         1 4K3       0.042700
     19 H7           5.1090     2.3890     4.6350 h1         1 4K3       0.046200
     20 H8           1.7120    -0.4960     4.3980 hn         1 4K3       0.167500
     21 H9           7.4490     1.9360     6.2180 hs         1 4K3       0.194800
     22 H10          3.4920     0.9280     5.8040 hc         1 4K3       0.042700
     23 H11          5.9360     0.9620     3.9940 h1         1 4K3       0.046200
@<TRIPOS>BOND
     1     1     2 ar  
     2     1     3 ar  
     3     1    13 1   
     4     2     4 ar  
     5     2    14 1   
     6     3     5 ar  
     7     3    15 1   
     8     4     6 ar  
     9     4    16 1   
    10     5     6 ar  
    11     5    17 1   
    12     6    10 1   
    13     7     8 1   
    14     7     9 1   
    15     7    18 1   
    16     7    22 1   
    17     8    12 1   
    18     8    19 1   
    19     8    23 1   
    20     9    10 1   
    21     9    11 2   
    22    10    20 1   
    23    12    21 1   
@<TRIPOS>SUBSTRUCTURE
     1 4K3         1 TEMP              0 ****  ****    0 ROOT
