@<TRIPOS>MOLECULE
4K4
   80    85     1     0     0
SMALL
bcc


@<TRIPOS>ATOM
      1 C4           0.0000     0.0000     0.0000 ca         1 4K4       0.580200
      2 C5           1.3960     0.0000     0.0000 ca         1 4K4      -0.397000
      3 C6           2.0550     0.0000     1.2210 ca         1 4K4       0.471200
      4 N1           1.3440    -0.0360     2.3390 nb         1 4K4      -0.685000
      5 N3          -0.6460    -0.0530     1.1600 nb         1 4K4      -0.685000
      6 CAU          8.0100    -1.4040     7.5200 c3         1 4K4       0.097300
      7 CAS          9.0710    -2.4960     7.6810 c3         1 4K4       0.158800
      8 NBL          9.8960    -2.2020     8.8620 n3         1 4K4      -0.542600
      9 CAB         10.6540    -0.9570     8.6780 c3         1 4K4       0.168100
     10 CAT          9.0700    -2.1410    10.0760 c3         1 4K4       0.158800
     11 CAV          8.0100    -1.0500     9.9140 c3         1 4K4       0.097300
     12 NBN          7.1840    -1.3420     8.7330 n3         1 4K4      -0.526600
     13 CBK          6.1050    -0.3570     8.5870 c3         1 4K4       0.129500
     14 CAP          5.2690    -0.6950     7.3500 c3         1 4K4      -0.051900
     15 CAR          4.1670     0.3550     7.1810 c3         1 4K4       0.028500
     16 CAO          5.2130    -0.3880     9.8310 c3         1 4K4      -0.051900
     17 CAQ          4.1100     0.6640     9.6900 c3         1 4K4       0.028500
     18 NBM          3.3940     0.4330     8.4280 n          1 4K4      -0.144800
     19 OAE          1.4350     0.2650     9.4610 o          1 4K4      -0.652100
     20 CBB          1.3360     0.1840     7.1310 ca         1 4K4      -0.125600
     21 CAN          0.1840    -0.6030     7.0390 ca         1 4K4      -0.131000
     22 CBE         -0.4840    -0.7060     5.8350 ca         1 4K4       0.111100
     23 OAZ         -1.6050    -1.4710     5.7420 os         1 4K4      -0.316900
     24 CAA         -2.0350    -2.1380     6.9300 c3         1 4K4       0.246700
     25 CAI          1.8040     0.8670     6.0060 ca         1 4K4      -0.127000
     26 CAJ          1.1330     0.7620     4.8070 ca         1 4K4      -0.088000
     27 CBC         -0.0090    -0.0250     4.7130 ca         1 4K4      -0.017400
     28 C2           0.0210    -0.0710     2.3050 ca         1 4K4       0.703900
     29 NBP         -0.7160     0.0630    -1.1860 na         1 4K4      -0.379700
     30 CAD         -1.6190    -1.0250    -1.5690 c3         1 4K4       0.224100
     31 CBH         -0.5640     1.1770    -2.0050 ca         1 4K4       0.060600
     32 CAL         -1.6630     1.9710    -2.3060 ca         1 4K4      -0.127000
     33 CAH         -1.5090     3.0980    -3.0890 ca         1 4K4      -0.065000
     34 CAG         -0.2580     3.4450    -3.5740 ca         1 4K4      -0.123000
     35 CAK          0.8390     2.6610    -3.2960 ca         1 4K4      -0.024000
     36 CBG          0.6970     1.5050    -2.5220 ca         1 4K4      -0.160600
     37 CBF          1.8520     0.6280    -2.3040 c          1 4K4       0.628100
     38 OAF          2.6260     0.4910    -3.2310 o          1 4K4      -0.687500
     39 NBO          2.1280    -0.0290    -1.1860 n          1 4K4       0.054000
     40 CAC          3.3270    -0.8720    -1.1980 c3         1 4K4       0.047300
     41 H1           3.1370     0.0290     1.2600 h4         1 4K4      -0.007900
     42 H2           7.3820    -1.6360     6.6680 h1         1 4K4       0.021700
     43 H3           8.4970    -0.4490     7.3670 h1         1 4K4       0.021700
     44 H4           8.5850    -3.4550     7.8120 h1         1 4K4       0.029450
     45 H5           9.7000    -2.5200     6.8000 h1         1 4K4       0.029450
     46 H7          11.2730    -1.0400     7.7930 h1         1 4K4       0.004367
     47 H8           9.9660    -0.1290     8.5610 h1         1 4K4       0.004367
     48 H9          11.2820    -0.7860     9.5430 h1         1 4K4       0.004367
     49 H10          9.6980    -1.9090    10.9280 h1         1 4K4       0.029450
     50 H11          8.5830    -3.0970    10.2290 h1         1 4K4       0.029450
     51 H12          7.3810    -1.0250    10.7960 h1         1 4K4       0.021700
     52 H13          8.4970    -0.0910     9.7840 h1         1 4K4       0.021700
     53 H15          6.5280     0.6340     8.4740 h1         1 4K4       0.009700
     54 H16          4.8200    -1.6730     7.4760 hc         1 4K4       0.034200
     55 H17          5.9060    -0.6940     6.4740 hc         1 4K4       0.034200
     56 H18          4.6140     1.3190     6.9710 h1         1 4K4       0.039700
     57 H19          3.5130     0.0660     6.3670 h1         1 4K4       0.039700
     58 H20          4.7650    -1.3690     9.9280 hc         1 4K4       0.034200
     59 H21          5.8100    -0.1690    10.7080 hc         1 4K4       0.034200
     60 H22          4.5520     1.6530     9.6800 h1         1 4K4       0.039700
     61 H23          3.4190     0.5780    10.5200 h1         1 4K4       0.039700
     62 H24         -0.2180    -1.0800     7.9240 ha         1 4K4       0.141000
     63 H25         -2.2510    -1.4050     7.6980 h1         1 4K4       0.001700
     64 H26         -2.9280    -2.7140     6.7180 h1         1 4K4       0.001700
     65 H27         -1.2510    -2.8020     7.2750 h1         1 4K4       0.001700
     66 H28          2.6930     1.4810     6.0760 ha         1 4K4       0.125000
     67 H29          1.4980     1.2910     3.9350 ha         1 4K4       0.139000
     68 H30         -1.6810    -0.2160     3.4850 hn         1 4K4       0.302800
     69 H31         -1.6820    -1.0790    -2.6490 h1         1 4K4       0.007700
     70 H32         -2.6040    -0.8380    -1.1590 h1         1 4K4       0.007700
     71 H33         -1.2390    -1.9630    -1.1820 h1         1 4K4       0.007700
     72 H34         -2.6430     1.7050    -1.9290 ha         1 4K4       0.116000
     73 H35         -2.3670     3.7210    -3.3130 ha         1 4K4       0.104000
     74 H36         -0.1460     4.3310    -4.1880 ha         1 4K4       0.108000
     75 H37          1.8130     2.9390    -3.6790 ha         1 4K4       0.120000
     76 H38          3.2350    -1.6410    -0.4410 h1         1 4K4       0.022033
     77 H39          4.1990    -0.2630    -0.9910 h1         1 4K4       0.022033
     78 H40          3.4330    -1.3350    -2.1720 h1         1 4K4       0.022033
     79 NAY         -0.6840    -0.1300     3.4970 nu         1 4K4      -0.263300
     80 CBA          2.0530     0.2960     8.4150 c          1 4K4       0.614700
@<TRIPOS>BOND
     1     1     2 ar  
     2     1     5 ar  
     3     1    29 1   
     4     2     3 ar  
     5     2    39 1   
     6     3     4 ar  
     7     3    41 1   
     8     4    28 ar  
     9     5    28 ar  
    10     6     7 1   
    11     6    12 1   
    12     6    42 1   
    13     6    43 1   
    14     7     8 1   
    15     7    44 1   
    16     7    45 1   
    17     8     9 1   
    18     8    10 1   
    19     9    46 1   
    20     9    47 1   
    21     9    48 1   
    22    10    11 1   
    23    10    49 1   
    24    10    50 1   
    25    11    12 1   
    26    11    51 1   
    27    11    52 1   
    28    12    13 1   
    29    13    14 1   
    30    13    16 1   
    31    13    53 1   
    32    14    15 1   
    33    14    54 1   
    34    14    55 1   
    35    15    18 1   
    36    15    56 1   
    37    15    57 1   
    38    16    17 1   
    39    16    58 1   
    40    16    59 1   
    41    17    18 1   
    42    17    60 1   
    43    17    61 1   
    44    18    80 1   
    45    19    80 2   
    46    20    21 ar  
    47    20    25 ar  
    48    20    80 1   
    49    21    22 ar  
    50    21    62 1   
    51    22    23 1   
    52    22    27 ar  
    53    23    24 1   
    54    24    63 1   
    55    24    64 1   
    56    24    65 1   
    57    25    26 ar  
    58    25    66 1   
    59    26    27 ar  
    60    26    67 1   
    61    27    79 1   
    62    28    79 1   
    63    29    30 1   
    64    29    31 1   
    65    30    69 1   
    66    30    70 1   
    67    30    71 1   
    68    31    32 ar  
    69    31    36 ar  
    70    32    33 ar  
    71    32    72 1   
    72    33    34 ar  
    73    33    73 1   
    74    34    35 ar  
    75    34    74 1   
    76    35    36 ar  
    77    35    75 1   
    78    36    37 1   
    79    37    38 2   
    80    37    39 1   
    81    39    40 1   
    82    40    76 1   
    83    40    77 1   
    84    40    78 1   
    85    68    79 1   
@<TRIPOS>SUBSTRUCTURE
     1 4K4         1 TEMP              0 ****  ****    0 ROOT
