@<TRIPOS>MOLECULE
molecule
   80    85     1     0     0
SMALL
bcc


@<TRIPOS>ATOM
      1 C4           0.0000     0.0000     0.0000 ca         1 4K4       0.745200
      2 C5           1.3960     0.0000     0.0000 ca         1 4K4      -0.253000
      3 C6           2.0550     0.0000     1.2210 ca         1 4K4       0.477200
      4 N1           1.3440    -0.0360     2.3390 nb         1 4K4      -0.786000
      5 N3          -0.6460    -0.0530     1.1600 nb         1 4K4      -0.797000
      6 CAU          8.0100    -1.4040     7.5200 c3         1 4K4       0.116300
      7 CAS          9.0710    -2.4960     7.6810 c3         1 4K4       0.163800
      8 NBL          9.8960    -2.2020     8.8620 n3         1 4K4      -0.721600
      9 CAB         10.6540    -0.9570     8.6780 c3         1 4K4       0.142100
     10 CAT          9.0700    -2.1410    10.0760 c3         1 4K4       0.163800
     11 CAV          8.0100    -1.0500     9.9140 c3         1 4K4       0.116300
     12 NBN          7.1840    -1.3420     8.7330 n3         1 4K4      -0.721600
     13 CBK          6.1050    -0.3570     8.5870 c3         1 4K4       0.171500
     14 CAP          5.2690    -0.6950     7.3500 c3         1 4K4      -0.096400
     15 CAR          4.1670     0.3550     7.1810 c3         1 4K4       0.095000
     16 CAO          5.2130    -0.3880     9.8310 c3         1 4K4      -0.096400
     17 CAQ          4.1100     0.6640     9.6900 c3         1 4K4       0.095000
     18 NBM          3.3940     0.4330     8.4280 n          1 4K4      -0.485800
     19 OAE          1.4350     0.2650     9.4610 o          1 4K4      -0.612100
     20 CBB          1.3360     0.1840     7.1310 ca         1 4K4      -0.128600
     21 CAN          0.1840    -0.6030     7.0390 ca         1 4K4      -0.147000
     22 CBE         -0.4840    -0.7060     5.8350 ca         1 4K4       0.096100
     23 OAZ         -1.6050    -1.4710     5.7420 os         1 4K4      -0.336900
     24 CAA         -2.0350    -2.1380     6.9300 c3         1 4K4       0.128700
     25 CAI          1.8040     0.8670     6.0060 ca         1 4K4      -0.136000
     26 CAJ          1.1330     0.7620     4.8070 ca         1 4K4      -0.112000
     27 CBC         -0.0090    -0.0250     4.7130 ca         1 4K4       0.156600
     28 C2           0.0210    -0.0710     2.3050 ca         1 4K4       0.939900
     29 NBP         -0.7160     0.0630    -1.1860 na         1 4K4      -0.743700
     30 CAD         -1.6190    -1.0250    -1.5690 c3         1 4K4       0.249100
     31 CBH         -0.5640     1.1770    -2.0050 ca         1 4K4       0.194600
     32 CAL         -1.6630     1.9710    -2.3060 ca         1 4K4      -0.151000
     33 CAH         -1.5090     3.0980    -3.0890 ca         1 4K4      -0.095000
     34 CAG         -0.2580     3.4450    -3.5740 ca         1 4K4      -0.150000
     35 CAK          0.8390     2.6610    -3.2960 ca         1 4K4      -0.058000
     36 CBG          0.6970     1.5050    -2.5220 ca         1 4K4      -0.158600
     37 CBF          1.8520     0.6280    -2.3040 c          1 4K4       0.722100
     38 OAF          2.6260     0.4910    -3.2310 o          1 4K4      -0.644500
     39 NBO          2.1280    -0.0290    -1.1860 n          1 4K4      -0.356000
     40 CAC          3.3270    -0.8720    -1.1980 c3         1 4K4       0.087300
     41 H1           3.1370     0.0290     1.2600 h4         1 4K4       0.037100
     42 H2           7.3820    -1.6360     6.6680 h1         1 4K4       0.039200
     43 H3           8.4970    -0.4490     7.3670 h1         1 4K4       0.039200
     44 H4           8.5850    -3.4550     7.8120 h1         1 4K4       0.062200
     45 H5           9.7000    -2.5200     6.8000 h1         1 4K4       0.062200
     46 H7          11.2730    -1.0400     7.7930 h1         1 4K4       0.032700
     47 H8           9.9660    -0.1290     8.5610 h1         1 4K4       0.032700
     48 H9          11.2820    -0.7860     9.5430 h1         1 4K4       0.032700
     49 H10          9.6980    -1.9090    10.9280 h1         1 4K4       0.062200
     50 H11          8.5830    -3.0970    10.2290 h1         1 4K4       0.062200
     51 H12          7.3810    -1.0250    10.7960 h1         1 4K4       0.039200
     52 H13          8.4970    -0.0910     9.7840 h1         1 4K4       0.039200
     53 H15          6.5280     0.6340     8.4740 h1         1 4K4       0.022700
     54 H16          4.8200    -1.6730     7.4760 hc         1 4K4       0.059450
     55 H17          5.9060    -0.6940     6.4740 hc         1 4K4       0.059450
     56 H18          4.6140     1.3190     6.9710 h1         1 4K4       0.062200
     57 H19          3.5130     0.0660     6.3670 h1         1 4K4       0.062200
     58 H20          4.7650    -1.3690     9.9280 hc         1 4K4       0.059450
     59 H21          5.8100    -0.1690    10.7080 hc         1 4K4       0.059450
     60 H22          4.5520     1.6530     9.6800 h1         1 4K4       0.062200
     61 H23          3.4190     0.5780    10.5200 h1         1 4K4       0.062200
     62 H24         -0.2180    -1.0800     7.9240 ha         1 4K4       0.160000
     63 H25         -2.2510    -1.4050     7.6980 h1         1 4K4       0.045700
     64 H26         -2.9280    -2.7140     6.7180 h1         1 4K4       0.045700
     65 H27         -1.2510    -2.8020     7.2750 h1         1 4K4       0.045700
     66 H28          2.6930     1.4810     6.0760 ha         1 4K4       0.144000
     67 H29          1.4980     1.2910     3.9350 ha         1 4K4       0.166000
     68 H30         -1.6810    -0.2160     3.4850 hn         1 4K4       0.479800
     69 H31         -1.6820    -1.0790    -2.6490 h1         1 4K4       0.042033
     70 H32         -2.6040    -0.8380    -1.1590 h1         1 4K4       0.042033
     71 H33         -1.2390    -1.9630    -1.1820 h1         1 4K4       0.042033
     72 H34         -2.6430     1.7050    -1.9290 ha         1 4K4       0.144000
     73 H35         -2.3670     3.7210    -3.3130 ha         1 4K4       0.136000
     74 H36         -0.1460     4.3310    -4.1880 ha         1 4K4       0.137000
     75 H37          1.8130     2.9390    -3.6790 ha         1 4K4       0.152000
     76 H38          3.2350    -1.6410    -0.4410 h1         1 4K4       0.051367
     77 H39          4.1990    -0.2630    -0.9910 h1         1 4K4       0.051367
     78 H40          3.4330    -1.3350    -2.1720 h1         1 4K4       0.051367
     79 NAY         -0.6840    -0.1300     3.4970 nu         1 4K4      -0.740300
     80 CBA          2.0530     0.2960     8.4150 c          1 4K4       0.681700
@<TRIPOS>BOND
     1    16    17 1   
     2    16    13 1   
     3    17    18 1   
     4    10    11 1   
     5    10     8 1   
     6    11    12 1   
     7    19    80 2   
     8     9     8 1   
     9     8     7 1   
    10    12    13 1   
    11    12     6 1   
    12    13    14 1   
    13    18    80 1   
    14    18    15 1   
    15    80    20 1   
    16    14    15 1   
    17     7     6 1   
    18    20    21 ar  
    19    20    25 ar  
    20    21    22 ar  
    21    25    26 ar  
    22    24    23 1   
    23    22    23 1   
    24    22    27 ar  
    25    26    27 ar  
    26    27    79 1   
    27    79    28 1   
    28    28     5 ar  
    29    28     4 ar  
    30     5     1 ar  
    31    32    33 ar  
    32    32    31 ar  
    33     4     3 ar  
    34    30    29 1   
    35    33    34 ar  
    36     1    29 1   
    37     1     2 ar  
    38    29    31 1   
    39    31    36 ar  
    40     3     2 ar  
    41    34    35 ar  
    42     2    39 1   
    43    36    35 ar  
    44    36    37 1   
    45    39    37 1   
    46    39    40 1   
    47    37    38 2   
    48     3    41 1   
    49     6    42 1   
    50     6    43 1   
    51     7    44 1   
    52     7    45 1   
    53     9    46 1   
    54     9    47 1   
    55     9    48 1   
    56    10    49 1   
    57    10    50 1   
    58    11    51 1   
    59    11    52 1   
    60    13    53 1   
    61    14    54 1   
    62    14    55 1   
    63    15    56 1   
    64    15    57 1   
    65    16    58 1   
    66    16    59 1   
    67    17    60 1   
    68    17    61 1   
    69    21    62 1   
    70    24    63 1   
    71    24    64 1   
    72    24    65 1   
    73    25    66 1   
    74    26    67 1   
    75    79    68 1   
    76    30    69 1   
    77    30    70 1   
    78    30    71 1   
    79    32    72 1   
    80    33    73 1   
    81    34    74 1   
    82    35    75 1   
    83    40    76 1   
    84    40    77 1   
    85    40    78 1   
@<TRIPOS>SUBSTRUCTURE
     1 4K4         1 TEMP              0 ****  ****    0 ROOT
