@<TRIPOS>MOLECULE
4K5
   53    56     1     0     0
SMALL
bcc


@<TRIPOS>ATOM
      1 C4           0.0000     0.0000     0.0000 ca         1 4K5       0.636200
      2 C5           1.3970     0.0000     0.0000 ca         1 4K5      -0.603900
      3 C6           2.0550     0.0000     1.2150 ca         1 4K5       0.590200
      4 N1           1.3480     0.0000     2.3350 nb         1 4K5      -0.744000
      5 N3          -0.6460     0.0010     1.1610 nb         1 4K5      -0.761000
      6 CAL         -2.8860    -0.5570    -2.4080 cx         1 4K5      -0.088900
      7 CAM         -2.8780     0.9520    -2.1580 cx         1 4K5      -0.088900
      8 CBD         -2.1670     0.0110    -1.1830 cx         1 4K5       0.056500
      9 NAS         -0.7030     0.0050    -1.1950 nu         1 4K5      -0.422900
     10 CBF          2.1680    -0.0010    -1.2950 c3         1 4K5       0.667200
     11 FAE          1.8390    -1.1440    -2.0320 f          1 4K5      -0.210633
     12 FAF          1.8400     1.1400    -2.0330 f          1 4K5      -0.210633
     13 FAD          3.5390    -0.0020    -1.0200 f          1 4K5      -0.210633
     14 C2           0.0230     0.0010     2.3040 ca         1 4K5       0.760900
     15 NAR         -0.6790     0.0010     3.4990 nu         1 4K5      -0.259300
     16 CAY          0.0060    -0.0780     4.7110 ca         1 4K5       0.001600
     17 CAZ         -0.5530    -0.7800     5.7820 ca         1 4K5       0.105100
     18 CAI          0.1230    -0.8590     6.9810 ca         1 4K5      -0.156000
     19 OAT         -1.7630    -1.3840     5.6410 os         1 4K5      -0.311900
     20 CAA         -2.2740    -2.0850     6.7770 c3         1 4K5       0.247700
     21 CAH          1.2430     0.5370     4.8480 ca         1 4K5      -0.119000
     22 CAW          1.9250     0.4610     6.0460 ca         1 4K5       0.143900
     23 FAC          3.1290     1.0600     6.1780 f          1 4K5      -0.115900
     24 CBA          1.3680    -0.2360     7.1240 ca         1 4K5      -0.155600
     25 CAV          2.0920    -0.3190     8.4050 c          1 4K5       0.616700
     26 OAB          3.2440    -0.7060     8.4280 o          1 4K5      -0.624100
     27 NBE          1.4770     0.0360     9.5510 n          1 4K5      -0.153800
     28 CAN          2.1320    -0.1620    10.8540 c3         1 4K5       0.003500
     29 CAJ          2.0640     1.1550    11.6350 c3         1 4K5       0.198400
     30 OAU          0.7100     1.6140    11.6680 os         1 4K5      -0.406600
     31 CAK          0.1620     1.9110    10.3810 c3         1 4K5       0.198400
     32 CAO          0.1350     0.6380     9.5360 c3         1 4K5       0.003500
     33 H1           3.1380    -0.0000     1.2510 h4         1 4K5      -0.002900
     34 H3          -2.2440    -0.9020    -3.2090 hc         1 4K5       0.050450
     35 H4          -3.8110     1.3730    -1.8050 hc         1 4K5       0.050450
     36 H5          -2.2300     1.5300    -2.8060 hc         1 4K5       0.050450
     37 H6          -2.6840    -0.1410    -0.2430 h1         1 4K5       0.096700
     38 H7          -0.2100    -0.0200    -2.0650 hn         1 4K5       0.303800
     39 H8          -1.6760     0.0960     3.4930 hn         1 4K5       0.301800
     40 H9          -0.3110    -1.4020     7.8130 ha         1 4K5       0.132000
     41 H10         -2.4310    -1.3880     7.5910 h1         1 4K5       0.000367
     42 H11         -3.2150    -2.5550     6.5170 h1         1 4K5       0.000367
     43 H12         -1.5630    -2.8430     7.0820 h1         1 4K5       0.000367
     44 H13          1.6580     1.1060     4.0250 ha         1 4K5       0.164000
     45 H14          3.1670    -0.4420    10.7020 h1         1 4K5       0.037950
     46 H15          1.6160    -0.9390    11.4060 h1         1 4K5       0.037950
     47 H16          2.6840     1.8960    11.1460 h1         1 4K5       0.016700
     48 H17          2.4140     0.9920    12.6470 h1         1 4K5       0.016700
     49 H18         -0.8470     2.2880    10.4980 h1         1 4K5       0.016700
     50 H19          0.7780     2.6560     9.8910 h1         1 4K5       0.016700
     51 H20         -0.5800    -0.0600     9.9550 h1         1 4K5       0.037950
     52 H21         -0.1410     0.8840     8.5180 h1         1 4K5       0.037950
     53 H2          -3.8250    -1.0580    -2.2080 hc         1 4K5       0.050450
@<TRIPOS>BOND
     1     1     2 ar  
     2     1     5 ar  
     3     1     9 1   
     4     2     3 ar  
     5     2    10 1   
     6     3     4 ar  
     7     3    33 1   
     8     4    14 ar  
     9     5    14 ar  
    10     6     7 1   
    11     6     8 1   
    12     6    34 1   
    13     6    53 1   
    14     7     8 1   
    15     7    35 1   
    16     7    36 1   
    17     8     9 1   
    18     8    37 1   
    19     9    38 1   
    20    10    11 1   
    21    10    12 1   
    22    10    13 1   
    23    14    15 1   
    24    15    16 1   
    25    15    39 1   
    26    16    17 ar  
    27    16    21 ar  
    28    17    18 ar  
    29    17    19 1   
    30    18    24 ar  
    31    18    40 1   
    32    19    20 1   
    33    20    41 1   
    34    20    42 1   
    35    20    43 1   
    36    21    22 ar  
    37    21    44 1   
    38    22    23 1   
    39    22    24 ar  
    40    24    25 1   
    41    25    26 2   
    42    25    27 1   
    43    27    28 1   
    44    27    32 1   
    45    28    29 1   
    46    28    45 1   
    47    28    46 1   
    48    29    30 1   
    49    29    47 1   
    50    29    48 1   
    51    30    31 1   
    52    31    32 1   
    53    31    49 1   
    54    31    50 1   
    55    32    51 1   
    56    32    52 1   
@<TRIPOS>SUBSTRUCTURE
     1 4K5         1 TEMP              0 ****  ****    0 ROOT
