@<TRIPOS>MOLECULE
molecule
   53    56     1     0     0
SMALL
bcc


@<TRIPOS>ATOM
      1 C4           0.0000     0.0000     0.0000 ca         1 4K5       0.812200
      2 C5           1.3970     0.0000     0.0000 ca         1 4K5      -0.558900
      3 C6           2.0550     0.0000     1.2150 ca         1 4K5       0.576200
      4 N1           1.3480     0.0000     2.3350 nb         1 4K5      -0.831000
      5 N3          -0.6460     0.0010     1.1610 nb         1 4K5      -0.858000
      6 CAL         -2.8860    -0.5570    -2.4080 cx         1 4K5      -0.154400
      7 CAM         -2.8780     0.9520    -2.1580 cx         1 4K5      -0.154400
      8 CBD         -2.1670     0.0110    -1.1830 cx         1 4K5       0.177500
      9 NAS         -0.7030     0.0050    -1.1950 nu         1 4K5      -0.860900
     10 CBF          2.1680    -0.0010    -1.2950 c3         1 4K5       0.690200
     11 FAE          1.8390    -1.1440    -2.0320 f          1 4K5      -0.226300
     12 FAF          1.8400     1.1400    -2.0330 f          1 4K5      -0.226300
     13 FAD          3.5390    -0.0020    -1.0200 f          1 4K5      -0.226300
     14 C2           0.0230     0.0010     2.3040 ca         1 4K5       0.991900
     15 NAR         -0.6790     0.0010     3.4990 nu         1 4K5      -0.736300
     16 CAY          0.0060    -0.0780     4.7110 ca         1 4K5       0.172600
     17 CAZ         -0.5530    -0.7800     5.7820 ca         1 4K5       0.088100
     18 CAI          0.1230    -0.8590     6.9810 ca         1 4K5      -0.164000
     19 OAT         -1.7630    -1.3840     5.6410 os         1 4K5      -0.331900
     20 CAA         -2.2740    -2.0850     6.7770 c3         1 4K5       0.129700
     21 CAH          1.2430     0.5370     4.8480 ca         1 4K5      -0.143000
     22 CAW          1.9250     0.4610     6.0460 ca         1 4K5       0.161900
     23 FAC          3.1290     1.0600     6.1780 f          1 4K5      -0.119900
     24 CBA          1.3680    -0.2360     7.1240 ca         1 4K5      -0.164600
     25 CAV          2.0920    -0.3190     8.4050 c          1 4K5       0.682700
     26 OAB          3.2440    -0.7060     8.4280 o          1 4K5      -0.584100
     27 NBE          1.4770     0.0360     9.5510 n          1 4K5      -0.492800
     28 CAN          2.1320    -0.1620    10.8540 c3         1 4K5       0.067500
     29 CAJ          2.0640     1.1550    11.6350 c3         1 4K5       0.120400
     30 OAU          0.7100     1.6140    11.6680 os         1 4K5      -0.420600
     31 CAK          0.1620     1.9110    10.3810 c3         1 4K5       0.120400
     32 CAO          0.1350     0.6380     9.5360 c3         1 4K5       0.067500
     33 H1           3.1380    -0.0000     1.2510 h4         1 4K5       0.049100
     34 H3          -2.2440    -0.9020    -3.2090 hc         1 4K5       0.080450
     35 H4          -3.8110     1.3730    -1.8050 hc         1 4K5       0.080450
     36 H5          -2.2300     1.5300    -2.8060 hc         1 4K5       0.080450
     37 H6          -2.6840    -0.1410    -0.2430 h1         1 4K5       0.123700
     38 H7          -0.2100    -0.0200    -2.0650 hn         1 4K5       0.463800
     39 H8          -1.6760     0.0960     3.4930 hn         1 4K5       0.479800
     40 H9          -0.3110    -1.4020     7.8130 ha         1 4K5       0.151000
     41 H10         -2.4310    -1.3880     7.5910 h1         1 4K5       0.044700
     42 H11         -3.2150    -2.5550     6.5170 h1         1 4K5       0.044700
     43 H12         -1.5630    -2.8430     7.0820 h1         1 4K5       0.044700
     44 H13          1.6580     1.1060     4.0250 ha         1 4K5       0.189000
     45 H14          3.1670    -0.4420    10.7020 h1         1 4K5       0.063950
     46 H15          1.6160    -0.9390    11.4060 h1         1 4K5       0.063950
     47 H16          2.6840     1.8960    11.1460 h1         1 4K5       0.056700
     48 H17          2.4140     0.9920    12.6470 h1         1 4K5       0.056700
     49 H18         -0.8470     2.2880    10.4980 h1         1 4K5       0.056700
     50 H19          0.7780     2.6560     9.8910 h1         1 4K5       0.056700
     51 H20         -0.5800    -0.0600     9.9550 h1         1 4K5       0.063950
     52 H21         -0.1410     0.8840     8.5180 h1         1 4K5       0.063950
     53 H2          -3.8250    -1.0580    -2.2080 hc         1 4K5       0.080450
@<TRIPOS>BOND
     1    12    10 1   
     2    11    10 1   
     3    10    13 1   
     4    10     2 1   
     5     2     3 ar  
     6     2     1 ar  
     7     3     4 ar  
     8     9     1 1   
     9     9     8 1   
    10     1     5 ar  
    11     4    14 ar  
    12     7     6 1   
    13     7     8 1   
    14     6     8 1   
    15     5    14 ar  
    16    14    15 1   
    17    15    16 1   
    18    19    20 1   
    19    19    17 1   
    20    16    17 ar  
    21    16    21 ar  
    22    17    18 ar  
    23    21    22 ar  
    24    32    31 1   
    25    32    27 1   
    26    31    30 1   
    27    18    24 ar  
    28    22    24 ar  
    29    22    23 1   
    30    24    25 1   
    31    30    29 1   
    32    27    25 1   
    33    27    28 1   
    34    25    26 2   
    35    29    28 1   
    36     3    33 1   
    37     6    53 1   
    38     6    34 1   
    39     7    35 1   
    40     7    36 1   
    41     8    37 1   
    42     9    38 1   
    43    15    39 1   
    44    18    40 1   
    45    20    41 1   
    46    20    42 1   
    47    20    43 1   
    48    21    44 1   
    49    28    45 1   
    50    28    46 1   
    51    29    47 1   
    52    29    48 1   
    53    31    49 1   
    54    31    50 1   
    55    32    51 1   
    56    32    52 1   
@<TRIPOS>SUBSTRUCTURE
     1 4K5         1 TEMP              0 ****  ****    0 ROOT
