@<TRIPOS>MOLECULE
4K6
   47    50     1     0     0
SMALL
bcc


@<TRIPOS>ATOM
      1 O            0.0000     0.0000     0.0000 o          1 4K6      -0.635100
      2 C11          1.2150     0.0000     0.0000 c          1 4K6       0.592700
      3 C12          1.9540     0.0000     1.2790 ca         1 4K6      -0.149600
      4 C17          3.3510     0.0060     1.2820 ca         1 4K6      -0.036500
      5 C16          4.0360     0.0060     2.4770 ca         1 4K6      -0.117000
      6 C15          3.3380    -0.0000     3.6800 ca         1 4K6      -0.145200
      7 N3           4.0380     0.0010     4.8920 na         1 4K6       0.255200
      8 C19          3.5060    -0.0040     6.1470 cc         1 4K6       0.186400
      9 N5           4.5040    -0.0030     6.9880 nd         1 4K6      -0.318500
     10 N4           5.6180     0.0040     6.3460 nd         1 4K6      -0.318500
     11 C18          5.3900     0.0010     5.0610 cc         1 4K6       0.186400
     12 C14          1.9470    -0.0050     3.6810 ca         1 4K6      -0.117000
     13 C13          1.2560     0.0010     2.4900 ca         1 4K6      -0.036500
     14 N2           1.8900    -0.0060    -1.1670 ns         1 4K6      -0.201900
     15 C10          1.1580    -0.0120    -2.4360 c3         1 4K6       0.051000
     16 C9           2.1530    -0.0180    -3.5990 c3         1 4K6      -0.019700
     17 C8           1.4000    -0.0250    -4.9040 cc         1 4K6       0.192800
     18 N1           1.5680     0.8810    -5.9060 na         1 4K6       0.268700
     19 C3           0.7020     0.5340    -6.9230 ca         1 4K6      -0.273200
     20 C2           0.4190     1.0640    -8.1740 ca         1 4K6      -0.089000
     21 N            0.4980    -0.9000    -5.2390 nd         1 4K6      -0.506100
     22 C4           0.0190    -0.6100    -6.4770 ca         1 4K6       0.062400
     23 C5          -0.9390    -1.2050    -7.3030 ca         1 4K6      -0.035000
     24 C6          -1.2090    -0.6650    -8.5290 ca         1 4K6      -0.103300
     25 C7          -2.2430    -1.3100    -9.4160 c3         1 4K6       0.064200
     26 C1          -0.5310     0.4610    -8.9720 ca         1 4K6      -0.070300
     27 C           -0.8400     1.0350   -10.3300 c3         1 4K6       0.062200
     28 H17          3.8950     0.0100     0.3450 ha         1 4K6       0.121500
     29 H16          5.1190     0.0100     2.4790 ha         1 4K6       0.120500
     30 H19          2.4530    -0.0090     6.4000 h5         1 4K6       0.036100
     31 H18          6.1360     0.0050     4.2760 h5         1 4K6       0.036100
     32 H15          1.4070    -0.0070     4.6200 ha         1 4K6       0.120500
     33 H14          0.1730    -0.0030     2.4910 ha         1 4K6       0.121500
     34 H13          2.8900     0.0030    -1.1670 hn         1 4K6       0.175500
     35 H11          0.5350     0.8730    -2.4980 h1         1 4K6       0.041700
     36 H12          0.5350    -0.8960    -2.4890 h1         1 4K6       0.041700
     37 H9           2.7760    -0.9030    -3.5370 hc         1 4K6       0.019200
     38 H10          2.7770     0.8660    -3.5460 hc         1 4K6       0.019200
     39 H            2.2850     1.5770    -5.9550 hn         1 4K6       0.124700
     40 H4           0.9450     1.9430    -8.5250 ha         1 4K6       0.104000
     41 H5          -1.5190    -2.0450    -6.9420 ha         1 4K6       0.115000
     42 H7          -1.7800    -1.6180   -10.3450 hc         1 4K6       0.008033
     43 H8          -3.0330    -0.5990    -9.6240 hc         1 4K6       0.008033
     44 H6          -2.6590    -2.1760    -8.9150 hc         1 4K6       0.008033
     45 H1          -1.8850     1.3160   -10.3750 hc         1 4K6       0.009033
     46 H2          -0.6330     0.2920   -11.0910 hc         1 4K6       0.009033
     47 H3          -0.2230     1.9090   -10.5020 hc         1 4K6       0.009033
@<TRIPOS>BOND
     1     1     2 2   
     2     2     3 1   
     3     2    14 1   
     4     3     4 ar  
     5     3    13 ar  
     6     4     5 ar  
     7     4    28 1   
     8     5     6 ar  
     9     5    29 1   
    10     6     7 1   
    11     6    12 ar  
    12     7     8 1   
    13     7    11 1   
    14     8     9 2   
    15     8    30 1   
    16     9    10 1   
    17    10    11 2   
    18    11    31 1   
    19    12    13 ar  
    20    12    32 1   
    21    13    33 1   
    22    14    15 1   
    23    14    34 1   
    24    15    16 1   
    25    15    35 1   
    26    15    36 1   
    27    16    17 1   
    28    16    37 1   
    29    16    38 1   
    30    17    18 1   
    31    17    21 2   
    32    18    19 1   
    33    18    39 1   
    34    19    20 ar  
    35    19    22 ar  
    36    20    26 ar  
    37    20    40 1   
    38    21    22 1   
    39    22    23 ar  
    40    23    24 ar  
    41    23    41 1   
    42    24    25 1   
    43    24    26 ar  
    44    25    42 1   
    45    25    43 1   
    46    25    44 1   
    47    26    27 1   
    48    27    45 1   
    49    27    46 1   
    50    27    47 1   
@<TRIPOS>SUBSTRUCTURE
     1 4K6         1 TEMP              0 ****  ****    0 ROOT
