@<TRIPOS>MOLECULE
4K7
   59    62     1     0     0
SMALL
bcc


@<TRIPOS>ATOM
      1 C1           0.0000     0.0000     0.0000 ca         1 4K7      -0.105000
      2 C2          -0.0010     0.0090     2.3940 ca         1 4K7      -0.105000
      3 C3           1.3820     0.0000     0.0000 ca         1 4K7      -0.080000
      4 C4           1.3820     0.0020     2.3950 ca         1 4K7      -0.080000
      5 C5           9.9590    -1.7440    -4.7800 ca         1 4K7      -0.067000
      6 C6          11.1540    -1.5250    -5.4410 ca         1 4K7      -0.089000
      7 C7          10.3830    -4.1010    -4.7910 ca         1 4K7      -0.092000
      8 C8          -0.6920     0.0080     1.1970 ca         1 4K7      -0.081300
      9 C9           2.0730     0.0000     1.1970 ca         1 4K7      -0.134300
     10 C10          9.5750    -3.0310    -4.4530 ca         1 4K7      -0.079300
     11 C11         11.9630    -2.5940    -5.7790 ca         1 4K7      -0.039600
     12 C12         11.5760    -3.8840    -5.4570 ca         1 4K7      -0.038600
     13 C13          5.3860    -1.6450     1.1950 c          1 4K7       0.598100
     14 C14          5.1410    -4.8940    -0.1610 c3         1 4K7      -0.048400
     15 C15          6.6110    -5.3180    -0.1910 c3         1 4K7      -0.017400
     16 C16          8.9830    -4.4990    -0.3190 c3         1 4K7      -0.018400
     17 C17          4.8860    -4.0390     1.0850 c3         1 4K7       0.048000
     18 C18          7.2680    -3.1980     0.9770 c3         1 4K7       0.077000
     19 C19          9.2890    -4.4180    -1.8370 c3         1 4K7       0.140800
     20 C20          7.2320    -3.2880    -1.5330 c3         1 4K7       0.142800
     21 C21          7.5010    -4.0810    -0.2460 c3         1 4K7      -0.093000
     22 C22         -2.1980     0.0150     1.1970 c3         1 4K7       0.062200
     23 C23          3.5800    -0.0080     1.1970 c3         1 4K7       0.129300
     24 N25          5.8290    -2.9130     1.0910 n          1 4K7      -0.180800
     25 N26          4.0610    -1.3920     1.1950 ns         1 4K7      -0.239900
     26 N27          8.5100    -3.2320    -2.2790 n3         1 4K7      -0.532600
     27 O28          6.1800    -0.7290     1.2900 o          1 4K7      -0.703100
     28 Cl1         13.4630    -2.3190    -6.6080 cl         1 4K7      -0.007400
     29 Cl2         12.5910    -5.2270    -5.8810 cl         1 4K7      -0.008400
     30 H1          -0.5410    -0.0010    -0.9380 ha         1 4K7       0.107500
     31 H2          -0.5430     0.0130     3.3320 ha         1 4K7       0.107500
     32 H3           1.9240    -0.0040    -0.9380 ha         1 4K7       0.108500
     33 H4           1.9240     0.0030     3.3330 ha         1 4K7       0.108500
     34 H6          11.4560    -0.5160    -5.6950 ha         1 4K7       0.118000
     35 H7          10.0800    -5.1100    -4.5370 ha         1 4K7       0.119000
     36 H8           4.9150    -4.3140    -1.0480 hc         1 4K7       0.023700
     37 H9           4.5120    -5.7750    -0.1290 hc         1 4K7       0.023700
     38 H10          6.8400    -5.8860     0.7030 hc         1 4K7       0.020700
     39 H11          6.7910    -5.9290    -1.0670 hc         1 4K7       0.020700
     40 H12          9.6040    -3.8040     0.2340 hc         1 4K7       0.028200
     41 H13          9.1130    -5.5120     0.0430 hc         1 4K7       0.028200
     42 H14          5.0350    -4.6410     1.9730 h1         1 4K7       0.020200
     43 H15          3.8710    -3.6610     1.0630 h1         1 4K7       0.020200
     44 H16          7.6050    -3.7150     1.8670 h1         1 4K7       0.041700
     45 H17          7.8130    -2.2690     0.8620 h1         1 4K7       0.041700
     46 H18         10.3480    -4.2610    -2.0030 h1         1 4K7       0.018200
     47 H19          8.9430    -5.3110    -2.3430 h1         1 4K7       0.018200
     48 H20          6.4810    -3.7930    -2.1270 h1         1 4K7       0.026700
     49 H21          6.9050    -2.2850    -1.2870 h1         1 4K7       0.026700
     50 H22         -2.5580     0.2720     0.2080 hc         1 4K7       0.008367
     51 H23         -2.5640    -0.9670     1.4700 hc         1 4K7       0.008367
     52 H24         -2.5560     0.7460     1.9120 hc         1 4K7       0.008367
     53 H25          3.9440     0.5020     0.3130 h1         1 4K7       0.027700
     54 H26          3.9440     0.5000     2.0820 h1         1 4K7       0.027700
     55 H29          3.4070    -2.1480     1.2400 hn         1 4K7       0.183500
     56 C24          8.2760    -3.2680    -3.7280 c3         1 4K7       0.210100
     57 H5           9.3250    -0.9060    -4.5150 ha         1 4K7       0.115000
     58 H27          7.8790    -4.2370    -4.0060 h1         1 4K7       0.014200
     59 H28          7.5660    -2.4960    -3.9990 h1         1 4K7       0.014200
@<TRIPOS>BOND
     1     1     3 ar  
     2     1     8 ar  
     3     1    30 1   
     4     2     4 ar  
     5     2     8 ar  
     6     2    31 1   
     7     3     9 ar  
     8     3    32 1   
     9     4     9 ar  
    10     4    33 1   
    11     5     6 ar  
    12     5    10 ar  
    13     5    57 1   
    14     6    11 ar  
    15     6    34 1   
    16     7    10 ar  
    17     7    12 ar  
    18     7    35 1   
    19     8    22 1   
    20     9    23 1   
    21    10    56 1   
    22    11    12 ar  
    23    11    28 1   
    24    12    29 1   
    25    13    24 1   
    26    13    25 1   
    27    13    27 2   
    28    14    15 1   
    29    14    17 1   
    30    14    36 1   
    31    14    37 1   
    32    15    21 1   
    33    15    38 1   
    34    15    39 1   
    35    16    19 1   
    36    16    21 1   
    37    16    40 1   
    38    16    41 1   
    39    17    24 1   
    40    17    42 1   
    41    17    43 1   
    42    18    21 1   
    43    18    24 1   
    44    18    44 1   
    45    18    45 1   
    46    19    26 1   
    47    19    46 1   
    48    19    47 1   
    49    20    21 1   
    50    20    26 1   
    51    20    48 1   
    52    20    49 1   
    53    22    50 1   
    54    22    51 1   
    55    22    52 1   
    56    23    25 1   
    57    23    53 1   
    58    23    54 1   
    59    25    55 1   
    60    26    56 1   
    61    56    58 1   
    62    56    59 1   
@<TRIPOS>SUBSTRUCTURE
     1 4K7         1 TEMP              0 ****  ****    0 ROOT
