@<TRIPOS>MOLECULE
4K8
   19    20     1     0     0
SMALL
bcc


@<TRIPOS>ATOM
      1 C10         0.0260   -0.2290   -0.0040 ca        1 4K8     -0.094000
      2 O01        -3.3490    1.0330    5.2970 o         1 4K8     -0.807300
      3 C02        -2.8660   -0.0770    4.9600 c         1 4K8      0.826100
      4 O03        -2.9090   -1.1450    5.6200 o         1 4K8     -0.807300
      5 C04        -2.0930   -0.1190    3.6200 ca        1 4K8      0.391800
      6 C05        -0.7260    0.1550    3.6320 ca        1 4K8     -0.249300
      7 C06         0.0120    0.1250    2.4250 ca        1 4K8     -0.006000
      8 C07         1.4090    0.3940    2.3580 ca        1 4K8     -0.124000
      9 C08         2.0690    0.3490    1.1560 ca        1 4K8     -0.137000
     10 C09         1.3730    0.0350   -0.0380 ca        1 4K8     -0.168000
     11 C11        -0.6810   -0.1890    1.2250 ca        1 4K8     -0.187300
     12 C12        -2.0830   -0.4540    1.3310 ca        1 4K8      0.394200
     13 N13        -2.7690   -0.4240    2.4640 nb        1 4K8     -0.638000
     14 H1         -0.5260   -0.4740   -0.9230 ha        1 4K8      0.117000
     15 H3         -0.2260    0.3940    4.5800 ha        1 4K8      0.144000
     16 H4          1.9400    0.6360    3.2900 ha        1 4K8      0.126000
     17 H5          3.1470    0.5560    1.1010 ha        1 4K8      0.112000
     18 H6          1.9280    0.0060   -0.9860 ha        1 4K8      0.112000
     19 H7         -2.6510   -0.7010    0.4160 h4        1 4K8     -0.004900
@<TRIPOS>BOND
     1    1   10 ar  
     2    1   11 ar  
     3    1   14 1   
     4    2    3 1   
     5    3    4 1   
     6    3    5 1   
     7    5    6 ar  
     8    5   13 ar  
     9    6    7 ar  
    10    6   15 1   
    11    7    8 ar  
    12    7   11 ar  
    13    8    9 ar  
    14    8   16 1   
    15    9   10 ar  
    16    9   17 1   
    17   10   18 1   
    18   11   12 ar  
    19   12   13 ar  
    20   12   19 1   
@<TRIPOS>SUBSTRUCTURE
     1 4K8         1 TEMP              0 ****  ****    0 ROOT
