@<TRIPOS>MOLECULE
molecule
   19    20     1     0     0
SMALL
bcc


@<TRIPOS>ATOM
      1 C10          0.0000     0.0000     0.0000 ca         1 4K8      -0.101000
      2 O01         -4.1680     0.0000     4.8310 o          1 4K8      -0.819300
      3 C02         -2.8210     0.0000     4.8610 c          1 4K8       0.778100
      4 O03         -2.2380     0.0000     5.9260 o          1 4K8      -0.819300
      5 C04         -2.0530     0.0000     3.5980 ca         1 4K8       0.405800
      6 C05         -0.6700    -0.0000     3.6460 ca         1 4K8      -0.226300
      7 C06          0.0440     0.0000     2.4350 ca         1 4K8      -0.024000
      8 C07          1.4450     0.0000     2.3960 ca         1 4K8      -0.116000
      9 C08          2.0830     0.0000     1.1920 ca         1 4K8      -0.140000
     10 C09          1.3630     0.0000     0.0000 ca         1 4K8      -0.160000
     11 C11         -0.6910    -0.0010     1.2200 ca         1 4K8      -0.165300
     12 C12         -2.0980    -0.0010     1.2780 ca         1 4K8       0.386200
     13 N13         -2.7100    -0.0000     2.4340 nb         1 4K8      -0.639000
     14 H1          -0.5460    -0.0000    -0.9360 ha         1 4K8       0.119000
     15 H3          -0.1340     0.0000     4.5870 ha         1 4K8       0.158000
     16 H4           2.0170    -0.0000     3.3160 ha         1 4K8       0.128000
     17 H5           3.1660     0.0000     1.1610 ha         1 4K8       0.110000
     18 H6           1.8960     0.0000    -0.9430 ha         1 4K8       0.109000
     19 H7          -2.8520    -0.0010     0.5000 h4         1 4K8       0.016100
@<TRIPOS>BOND
     1    12    13 ar
     2    12    11 ar
     3     1    11 ar
     4     1    10 ar
     5    13     5 ar
     6    11     7 ar
     7     4     3 1
     8    10     9 ar
     9     5     3 1
    10     5     6 ar
    11     3     2 1
    12     7     6 ar
    13     7     8 ar
    14     9     8 ar
    15     1    14 1
    16     6    15 1
    17     8    16 1
    18     9    17 1
    19    10    18 1
    20    12    19 1
@<TRIPOS>SUBSTRUCTURE
     1 4K8         1 TEMP              0 ****  ****    0 ROOT
