@<TRIPOS>MOLECULE
molecule
   39    41     1     0     0
SMALL
bcc


@<TRIPOS>ATOM
      1 C2           0.0000     0.0000     0.0000 ca         1 4K9      -0.153000
      2 C3           1.3810    -0.0020     2.3960 ca         1 4K9      -0.107000
      3 C4          -0.0030     0.0060     2.4040 ca         1 4K9      -0.111300
      4 C10         -4.2400     0.3330     0.0440 ca         1 4K9      -0.031600
      5 C1           1.3810     0.0000     0.0000 ca         1 4K9      -0.107000
      6 C5          -0.6950     0.0040     1.2040 ca         1 4K9       0.042600
      7 C6          -2.8270    -0.2830     2.4220 c3         1 4K9       0.083000
      8 C7          -2.1570     0.5010     3.5580 c3         1 4K9      -0.097400
      9 C8          -0.7240    -0.0070     3.7280 c3         1 4K9      -0.032100
     10 O2          -9.2110    -0.8580     0.2610 o          1 4K9      -0.514800
     11 O1          -9.1440     1.2410    -1.0950 o          1 4K9      -0.514800
     12 N1          -9.2370     1.3470     1.3690 nz         1 4K9      -0.806500
     13 C13         -7.0080     0.4220     0.0460 ca         1 4K9      -0.334500
     14 C12         -6.3510    -0.6060     0.7000 ca         1 4K9      -0.034500
     15 C11         -4.9730    -0.6560     0.7030 ca         1 4K9      -0.101000
     16 C14         -6.2870     1.4090    -0.6020 ca         1 4K9      -0.034500
     17 C15         -4.9090     1.3710    -0.6070 ca         1 4K9      -0.101000
     18 N           -2.0960     0.0110     1.1820 n          1 4K9      -0.353000
     19 C            2.0700     0.0000     1.1980 ca         1 4K9      -0.129000
     20 H1          -0.5420    -0.0000    -0.9380 ha         1 4K9       0.194000
     21 H2           1.9260    -0.0020     3.3320 ha         1 4K9       0.139000
     22 H3           1.9230     0.0020    -0.9380 ha         1 4K9       0.144000
     23 H4          -3.8590     0.0290     2.3220 h1         1 4K9       0.050700
     24 H5          -2.7780    -1.3450     2.6320 h1         1 4K9       0.050700
     25 H6          -2.1290     1.5500     3.2920 hc         1 4K9       0.058200
     26 H7          -2.7030     0.3230     4.4770 hc         1 4K9       0.058200
     27 H8          -0.1990     0.6340     4.4260 hc         1 4K9       0.061700
     28 H9          -0.7470    -1.0200     4.1110 hc         1 4K9       0.061700
     29 H10         -8.8570     2.2710     1.3120 hn         1 4K9       0.492467
     30 H11         -8.9020     0.8990     2.1990 hn         1 4K9       0.492467
     31 H12         -6.9210    -1.3730     1.2110 ha         1 4K9       0.159500
     32 H13         -4.4600    -1.4610     1.2150 ha         1 4K9       0.179000
     33 H14         -6.8070     2.2140    -1.1080 ha         1 4K9       0.159500
     34 H15         -4.3460     2.1440    -1.1160 ha         1 4K9       0.179000
     35 H16          3.1540     0.0000     1.1980 ha         1 4K9       0.140000
     36 C9          -2.7620     0.2860     0.0430 c          1 4K9       0.655700
     37 S           -8.7690     0.4750     0.0410 sy         1 4K9       1.225200
     38 O           -2.1490     0.4930    -0.9860 o          1 4K9      -0.556100
     39 H131       -10.2360     1.3990     1.3990 hn         1 4K9       0.492467
@<TRIPOS>BOND
     1     9     8 1
     2     9     3 1
     3     8     7 1
     4     3     2 ar
     5     3     6 ar
     6     2    19 ar
     7    18     7 1
     8    18     6 1
     9    18    36 1
    10     6     1 ar
    11    19     5 ar
    12    38    36 2
    13    36     4 1
    14     1     5 ar
    15     4    17 ar
    16     4    15 ar
    17    17    16 ar
    18    15    14 ar
    19    16    13 ar
    20    14    13 ar
    21    13    37 1
    22    12    37 1
    23    10    37 2
    24    37    11 2
    25     1    20 1
    26     2    21 1
    27     5    22 1
    28     7    23 1
    29     7    24 1
    30     8    25 1
    31     8    26 1
    32     9    27 1
    33     9    28 1
    34    12    29 1
    35    12    30 1
    36    14    31 1
    37    15    32 1
    38    16    33 1
    39    17    34 1
    40    19    35 1
    41    39    12 1
@<TRIPOS>SUBSTRUCTURE
     1 4K9         1 TEMP              0 ****  ****    0 ROOT
