@<TRIPOS>MOLECULE
4K9
   39    41     1     0     0
SMALL
bcc


@<TRIPOS>ATOM
      1 C2           0.0000     0.0000     0.0000 ca         1 4K9      -0.148000
      2 C3           1.3810    -0.0020     2.3960 ca         1 4K9      -0.081000
      3 C4          -0.0030     0.0060     2.4040 ca         1 4K9      -0.113300
      4 C10         -4.2400     0.3330     0.0440 ca         1 4K9      -0.034600
      5 C1           1.3810     0.0000     0.0000 ca         1 4K9      -0.074000
      6 C5          -0.6950     0.0040     1.2040 ca         1 4K9      -0.100400
      7 C6          -2.8270    -0.2830     2.4220 c3         1 4K9      -0.002000
      8 C7          -2.1570     0.5010     3.5580 c3         1 4K9      -0.036400
      9 C8          -0.7240    -0.0070     3.7280 c3         1 4K9       0.038900
     10 O2          -9.2110    -0.8580     0.2610 o          1 4K9      -0.492800
     11 O1          -9.1440     1.2410    -1.0950 o          1 4K9      -0.492800
     12 N1          -9.2370     1.3470     1.3690 nz         1 4K9      -0.132500
     13 C13         -7.0080     0.4220     0.0460 ca         1 4K9      -0.221500
     14 C12         -6.3510    -0.6060     0.7000 ca         1 4K9       0.006500
     15 C11         -4.9730    -0.6560     0.7030 ca         1 4K9      -0.080500
     16 C14         -6.2870     1.4090    -0.6020 ca         1 4K9       0.006500
     17 C15         -4.9090     1.3710    -0.6070 ca         1 4K9      -0.080500
     18 N           -2.0960     0.0110     1.1820 n          1 4K9       0.059000
     19 C            2.0700     0.0000     1.1980 ca         1 4K9      -0.095000
     20 H1          -0.5420    -0.0000    -0.9380 ha         1 4K9       0.184000
     21 H2           1.9260    -0.0020     3.3320 ha         1 4K9       0.111000
     22 H3           1.9230     0.0020    -0.9380 ha         1 4K9       0.112000
     23 H4          -3.8590     0.0290     2.3220 h1         1 4K9       0.029200
     24 H5          -2.7780    -1.3450     2.6320 h1         1 4K9       0.029200
     25 H6          -2.1290     1.5500     3.2920 hc         1 4K9       0.026700
     26 H7          -2.7030     0.3230     4.4770 hc         1 4K9       0.026700
     27 H8          -0.1990     0.6340     4.4260 hc         1 4K9       0.030200
     28 H9          -0.7470    -1.0200     4.1110 hc         1 4K9       0.030200
     29 H10         -8.8570     2.2710     1.3120 hn         1 4K9       0.313467
     30 H11         -8.9020     0.8990     2.1990 hn         1 4K9       0.313467
     31 H12         -6.9210    -1.3730     1.2110 ha         1 4K9       0.128000
     32 H13         -4.4600    -1.4610     1.2150 ha         1 4K9       0.145500
     33 H14         -6.8070     2.2140    -1.1080 ha         1 4K9       0.128000
     34 H15         -4.3460     2.1440    -1.1160 ha         1 4K9       0.145500
     35 H16          3.1540     0.0000     1.1980 ha         1 4K9       0.111000
     36 C9          -2.7620     0.2860     0.0430 c          1 4K9       0.562700
     37 S           -8.7690     0.4750     0.0410 sy         1 4K9       0.935200
     38 O           -2.1490     0.4930    -0.9860 o          1 4K9      -0.601100
     39 H131       -10.2360     1.3990     1.3990 hn         1 4K9       0.313467
@<TRIPOS>BOND
     1     1     5 ar  
     2     1     6 ar  
     3     1    20 1   
     4     2     3 ar  
     5     2    19 ar  
     6     2    21 1   
     7     3     6 ar  
     8     3     9 1   
     9     4    15 ar  
    10     4    17 ar  
    11     4    36 1   
    12     5    19 ar  
    13     5    22 1   
    14     6    18 1   
    15     7     8 1   
    16     7    18 1   
    17     7    23 1   
    18     7    24 1   
    19     8     9 1   
    20     8    25 1   
    21     8    26 1   
    22     9    27 1   
    23     9    28 1   
    24    10    37 2   
    25    11    37 2   
    26    12    29 1   
    27    12    30 1   
    28    12    37 1   
    29    12    39 1   
    30    13    14 ar  
    31    13    16 ar  
    32    13    37 1   
    33    14    15 ar  
    34    14    31 1   
    35    15    32 1   
    36    16    17 ar  
    37    16    33 1   
    38    17    34 1   
    39    18    36 1   
    40    19    35 1   
    41    36    38 2   
@<TRIPOS>SUBSTRUCTURE
     1 4K9         1 TEMP              0 ****  ****    0 ROOT
