@<TRIPOS>MOLECULE
4KA
   15    16     1     0     0
SMALL
bcc


@<TRIPOS>ATOM
      1 C1         -0.0090    0.0230   -0.0120 cc        1 4KA      0.160300
      2 C2          1.4880   -0.0420    0.0380 cc        1 4KA     -0.242600
      3 N3          0.7220   -0.0960    2.1560 nd        1 4KA     -0.502800
      4 N4          1.8470   -0.2180    1.3930 na        1 4KA      0.020400
      5 C5         -0.3890   -0.0250    1.4030 cc        1 4KA      0.334300
      6 N6          0.6860    0.0210   -2.0270 na        1 4KA     -0.015600
      7 N7         -0.4290    0.0610   -1.2930 nd        1 4KA     -0.451800
      8 C8          1.8870   -0.0430   -1.2930 cd        1 4KA     -0.136300
      9 C9         -1.7800   -0.0020    1.8890 c3        1 4KA     -0.131400
     10 H1          2.6230    0.3140    1.7430 hn        1 4KA      0.277700
     11 H2          0.6210    0.0840   -3.0170 hn        1 4KA      0.321700
     12 H3          2.8590   -0.0900   -1.7770 h4        1 4KA      0.187000
     13 H4         -2.2980    0.9050    1.4870 hc        1 4KA      0.059033
     14 H5         -2.3170   -0.9110    1.5190 hc        1 4KA      0.059033
     15 H6         -1.8350    0.0170    3.0050 hc        1 4KA      0.059033
@<TRIPOS>BOND
     1    1    2 1   
     2    1    5 1   
     3    1    7 2   
     4    2    4 1   
     5    2    8 2   
     6    3    4 1   
     7    3    5 2   
     8    4   10 1   
     9    5    9 1   
    10    6    7 1   
    11    6    8 1   
    12    6   11 1   
    13    8   12 1   
    14    9   13 1   
    15    9   14 1   
    16    9   15 1   
@<TRIPOS>SUBSTRUCTURE
     1 4KA         1 TEMP              0 ****  ****    0 ROOT
