@<TRIPOS>MOLECULE
molecule
   15    16     1     0     0
SMALL
bcc


@<TRIPOS>ATOM
      1 C1           0.0000     0.0000     0.0000 cc         1 4KA       0.195300
      2 C2           1.4190     0.0000     0.0000 cd         1 4KA      -0.208600
      3 N3           0.6690    -0.0010     2.1380 nd         1 4KA      -0.435800
      4 N4           1.8090     0.0000     1.3280 na         1 4KA      -0.102600
      5 C5          -0.4060    -0.0000     1.4060 cc         1 4KA       0.303300
      6 N6           0.7330    -0.0000    -2.0800 na         1 4KA      -0.008600
      7 N7          -0.4020     0.0050    -1.2580 nd         1 4KA      -0.480800
      8 C8           1.8280     0.0000    -1.2970 cc         1 4KA      -0.156300
      9 C9          -1.8240     0.0000     1.9180 c3         1 4KA      -0.109400
     10 H1           2.7540     0.0000     1.6560 hn         1 4KA       0.330700
     11 H2           0.7300    -0.0040    -3.0810 hn         1 4KA       0.336700
     12 H3           2.8560    -0.0030    -1.6400 h4         1 4KA       0.172000
     13 H4          -2.4290    -0.6560     1.3050 hc         1 4KA       0.055033
     14 H5          -1.8380    -0.3490     2.9440 hc         1 4KA       0.055033
     15 H6          -2.2230     1.0060     1.8740 hc         1 4KA       0.055033
@<TRIPOS>BOND
     1     8     6 1   
     2     8     2 2   
     3     6     7 1   
     4     2     4 1   
     5     2     1 1   
     6     7     1 2   
     7     4     3 1   
     8     1     5 1   
     9     3     5 2   
    10     5     9 1   
    11     4    10 1   
    12     6    11 1   
    13     8    12 1   
    14     9    13 1   
    15     9    14 1   
    16     9    15 1   
@<TRIPOS>SUBSTRUCTURE
     1 4KA         1 TEMP              0 ****  ****    0 ROOT
