@<TRIPOS>MOLECULE
molecule
   41    43     1     0     0
SMALL
bcc


@<TRIPOS>ATOM
      1 C3           0.0000     0.0000     0.0000 ca         1 4KB      -0.154000
      2 C4           1.3900     0.0000     0.0000 ca         1 4KB      -0.110300
      3 C9           4.1830    -1.1330     1.9360 c          1 4KB       0.659700
      4 C10          3.4540    -1.8920     2.9740 ca         1 4KB      -0.029600
      5 C5           2.0900     0.0000     1.3350 c3         1 4KB       0.141300
      6 C6           4.2010     0.4430     0.0490 c3         1 4KB       0.108000
      7 C7           3.5800    -0.0160    -1.2690 c3         1 4KB      -0.055100
      8 C8           2.0760     0.0150    -1.1930 ca         1 4KB      -0.061300
      9 O            5.3800    -1.2890     1.7980 o          1 4KB      -0.573100
     10 C11          3.6940    -3.2570     3.1440 ca         1 4KB      -0.101500
     11 C12          3.0110    -3.9600     4.1140 ca         1 4KB      -0.034500
     12 C15          2.5250    -1.2470     3.7920 ca         1 4KB      -0.101500
     13 C14          1.8480    -1.9620     4.7590 ca         1 4KB      -0.034500
     14 C13          2.0880    -3.3150     4.9180 ca         1 4KB      -0.334500
     15 S            1.2180    -4.2200     6.1540 sy         1 4KB       1.227200
     16 N1           2.1180    -4.1410     7.5430 nz         1 4KB      -0.807500
     17 O1           0.0200    -3.5000     6.4110 o          1 4KB      -0.516300
     18 O2           1.2340    -5.5800     5.7430 o          1 4KB      -0.516300
     19 N            3.5190    -0.2690     1.1430 n          1 4KB      -0.474800
     20 C18          1.3730     0.0450    -2.3910 ca         1 4KB      -0.150000
     21 C17         -0.0090     0.0500    -2.3960 ca         1 4KB       0.112100
     22 O17         -0.6890     0.0810    -3.5750 oh         1 4KB      -0.502100
     23 C16         -0.7030     0.0250    -1.1900 ca         1 4KB       0.101100
     24 O16         -2.0630     0.0240    -1.1820 oh         1 4KB      -0.503100
     25 H1          -0.5370    -0.0200     0.9410 ha         1 4KB       0.136000
     26 H2           1.6620    -0.7700     1.9660 h1         1 4KB       0.056700
     27 H3           1.9680     0.9680     1.8050 h1         1 4KB       0.056700
     28 H4           4.0390     1.5080     0.1650 h1         1 4KB       0.078200
     29 H5           5.2520     0.1810     0.0570 h1         1 4KB       0.078200
     30 H6           3.8940    -1.0350    -1.4610 hc         1 4KB       0.071200
     31 H7           3.8990     0.6590    -2.0540 hc         1 4KB       0.071200
     32 H8           4.4160    -3.7630     2.5150 ha         1 4KB       0.177500
     33 H9           3.1950    -5.0190     4.2450 ha         1 4KB       0.159000
     34 H10          2.3360    -0.1880     3.6690 ha         1 4KB       0.177500
     35 H11          1.1250    -1.4630     5.3940 ha         1 4KB       0.159000
     36 H12          1.6550    -4.6510     8.2700 hn         1 4KB       0.492800
     37 H13          3.0210    -4.5400     7.3790 hn         1 4KB       0.492800
     38 H14          1.9130     0.0650    -3.3300 ha         1 4KB       0.152000
     39 H15         -0.6170    -0.7570    -4.0010 ho         1 4KB       0.430000
     40 H16         -2.3760     0.8660    -0.8940 ho         1 4KB       0.428000
     41 H131         2.2130    -3.1850     7.8250 hn         1 4KB       0.492800
@<TRIPOS>BOND
     1    24    23 1   
     2     1    23 ar  
     3     1     2 ar  
     4     5     2 1   
     5     5    19 1   
     6    23    21 ar  
     7     9     3 2   
     8     2     8 ar  
     9    19     3 1   
    10    19     6 1   
    11     3     4 1   
    12    21    22 1   
    13    21    20 ar  
    14     8    20 ar  
    15     8     7 1   
    16     6     7 1   
    17     4    10 ar  
    18     4    12 ar  
    19    10    11 ar  
    20    12    13 ar  
    21    11    14 ar  
    22    13    14 ar  
    23    14    15 1   
    24    16    15 1   
    25    17    15 2   
    26    15    18 2   
    27     1    25 1   
    28     5    26 1   
    29     5    27 1   
    30     6    28 1   
    31     6    29 1   
    32     7    30 1   
    33     7    31 1   
    34    10    32 1   
    35    11    33 1   
    36    12    34 1   
    37    13    35 1   
    38    16    36 1   
    39    16    37 1   
    40    20    38 1   
    41    22    39 1   
    42    24    40 1   
    43    41    16 1   
@<TRIPOS>SUBSTRUCTURE
     1 4KB         1 TEMP              0 ****  ****    0 ROOT
