@<TRIPOS>MOLECULE
4KB
   41    43     1     0     0
SMALL
bcc


@<TRIPOS>ATOM
      1 C3           0.0000     0.0000     0.0000 ca         1 4KB      -0.133000
      2 C4           1.3900     0.0000     0.0000 ca         1 4KB      -0.120300
      3 C9           4.1830    -1.1330     1.9360 c          1 4KB       0.583700
      4 C10          3.4540    -1.8920     2.9740 ca         1 4KB      -0.029600
      5 C5           2.0900     0.0000     1.3350 c3         1 4KB       0.092300
      6 C6           4.2010     0.4430     0.0490 c3         1 4KB       0.049000
      7 C7           3.5800    -0.0160    -1.2690 c3         1 4KB       0.016900
      8 C8           2.0760     0.0150    -1.1930 ca         1 4KB      -0.070300
      9 O            5.3800    -1.2890     1.7980 o          1 4KB      -0.618100
     10 C11          3.6940    -3.2570     3.1440 ca         1 4KB      -0.080500
     11 C12          3.0110    -3.9600     4.1140 ca         1 4KB       0.006500
     12 C15          2.5250    -1.2470     3.7920 ca         1 4KB      -0.080500
     13 C14          1.8480    -1.9620     4.7590 ca         1 4KB       0.006500
     14 C13          2.0880    -3.3150     4.9180 ca         1 4KB      -0.221500
     15 S            1.2180    -4.2200     6.1540 sy         1 4KB       0.936200
     16 N1           2.1180    -4.1410     7.5430 nz         1 4KB      -0.131500
     17 O1           0.0200    -3.5000     6.4110 o          1 4KB      -0.495300
     18 O2           1.2340    -5.5800     5.7430 o          1 4KB      -0.495300
     19 N            3.5190    -0.2690     1.1430 n          1 4KB      -0.128800
     20 C18          1.3730     0.0450    -2.3910 ca         1 4KB      -0.129000
     21 C17         -0.0090     0.0500    -2.3960 ca         1 4KB       0.123100
     22 O17         -0.6890     0.0810    -3.5750 oh         1 4KB      -0.481100
     23 C16         -0.7030     0.0250    -1.1900 ca         1 4KB       0.110100
     24 O16         -2.0630     0.0240    -1.1820 oh         1 4KB      -0.483100
     25 H1          -0.5370    -0.0200     0.9410 ha         1 4KB       0.111000
     26 H2           1.6620    -0.7700     1.9660 h1         1 4KB       0.030700
     27 H3           1.9680     0.9680     1.8050 h1         1 4KB       0.030700
     28 H4           4.0390     1.5080     0.1650 h1         1 4KB       0.047700
     29 H5           5.2520     0.1810     0.0570 h1         1 4KB       0.047700
     30 H6           3.8940    -1.0350    -1.4610 hc         1 4KB       0.037700
     31 H7           3.8990     0.6590    -2.0540 hc         1 4KB       0.037700
     32 H8           4.4160    -3.7630     2.5150 ha         1 4KB       0.144500
     33 H9           3.1950    -5.0190     4.2450 ha         1 4KB       0.128000
     34 H10          2.3360    -0.1880     3.6690 ha         1 4KB       0.144500
     35 H11          1.1250    -1.4630     5.3940 ha         1 4KB       0.128000
     36 H12          1.6550    -4.6510     8.2700 hn         1 4KB       0.314133
     37 H13          3.0210    -4.5400     7.3790 hn         1 4KB       0.314133
     38 H14          1.9130     0.0650    -3.3300 ha         1 4KB       0.125000
     39 H15         -0.6170    -0.7570    -4.0010 ho         1 4KB       0.411000
     40 H16         -2.3760     0.8660    -0.8940 ho         1 4KB       0.410000
     41 H131         2.2130    -3.1850     7.8250 hn         1 4KB       0.314133
@<TRIPOS>BOND
     1     1     2 ar  
     2     1    23 ar  
     3     1    25 1   
     4     2     5 1   
     5     2     8 ar  
     6     3     4 1   
     7     3     9 2   
     8     3    19 1   
     9     4    10 ar  
    10     4    12 ar  
    11     5    19 1   
    12     5    26 1   
    13     5    27 1   
    14     6     7 1   
    15     6    19 1   
    16     6    28 1   
    17     6    29 1   
    18     7     8 1   
    19     7    30 1   
    20     7    31 1   
    21     8    20 ar  
    22    10    11 ar  
    23    10    32 1   
    24    11    14 ar  
    25    11    33 1   
    26    12    13 ar  
    27    12    34 1   
    28    13    14 ar  
    29    13    35 1   
    30    14    15 1   
    31    15    16 1   
    32    15    17 2   
    33    15    18 2   
    34    16    36 1   
    35    16    37 1   
    36    16    41 1   
    37    20    21 ar  
    38    20    38 1   
    39    21    22 1   
    40    21    23 ar  
    41    22    39 1   
    42    23    24 1   
    43    24    40 1   
@<TRIPOS>SUBSTRUCTURE
     1 4KB         1 TEMP              0 ****  ****    0 ROOT
