@<TRIPOS>MOLECULE
4KC
   39    41     1     0     0
SMALL
bcc


@<TRIPOS>ATOM
      1 C3           0.0000     0.0000     0.0000 ca         1 4KC      -0.095000
      2 C4           1.3880     0.0000     0.0000 ca         1 4KC      -0.123300
      3 C9           4.1850    -1.1340     1.9310 c          1 4KC       0.583700
      4 C10          3.4570    -1.8920     2.9710 ca         1 4KC      -0.028600
      5 C5           2.0910     0.0000     1.3340 c3         1 4KC       0.090300
      6 C6           4.2000     0.4420     0.0440 c3         1 4KC       0.049000
      7 C7           3.5770    -0.0170    -1.2730 c3         1 4KC       0.015900
      8 C8           2.0730     0.0130    -1.1930 ca         1 4KC      -0.075300
      9 O            5.3810    -1.2900     1.7920 o          1 4KC      -0.618100
     10 C11          3.6970    -3.2570     3.1410 ca         1 4KC      -0.081000
     11 C12          3.0150    -3.9590     4.1130 ca         1 4KC       0.006000
     12 C15          2.5300    -1.2470     3.7910 ca         1 4KC      -0.081000
     13 C14          1.8540    -1.9600     4.7590 ca         1 4KC       0.006000
     14 C13          2.0940    -3.3140     4.9190 ca         1 4KC      -0.222500
     15 S            1.2260    -4.2180     6.1570 sy         1 4KC       0.935200
     16 N1           2.1270    -4.1380     7.5440 nz         1 4KC      -0.130500
     17 O1           0.0280    -3.4970     6.4150 o          1 4KC      -0.495300
     18 O2           1.2410    -5.5780     5.7460 o          1 4KC      -0.495300
     19 N            3.5200    -0.2690     1.1390 n          1 4KC      -0.127800
     20 C18          1.3650     0.0440    -2.3900 ca         1 4KC      -0.091000
     21 C17         -0.0140     0.0500    -2.3880 ca         1 4KC      -0.081000
     22 C16         -0.7000     0.0250    -1.1880 ca         1 4KC      -0.092000
     23 H1          -0.5370    -0.0190     0.9400 ha         1 4KC       0.100000
     24 H2           1.6640    -0.7700     1.9650 h1         1 4KC       0.030200
     25 H3           1.9690     0.9680     1.8040 h1         1 4KC       0.030200
     26 H4           5.2510     0.1790     0.0490 h1         1 4KC       0.046700
     27 H5           4.0390     1.5070     0.1600 h1         1 4KC       0.046700
     28 H6           3.8930     0.6600    -2.0580 hc         1 4KC       0.037200
     29 H7           3.8910    -1.0360    -1.4660 hc         1 4KC       0.037200
     30 H8           4.4180    -3.7630     2.5110 ha         1 4KC       0.145000
     31 H9           3.1990    -5.0180     4.2440 ha         1 4KC       0.127500
     32 H10          2.3420    -0.1870     3.6670 ha         1 4KC       0.145000
     33 H11          1.1330    -1.4600     5.3950 ha         1 4KC       0.127500
     34 H12          3.0280    -4.5410     7.3790 hn         1 4KC       0.314133
     35 H13          1.6640    -4.6450     8.2720 hn         1 4KC       0.314133
     36 H14          1.9010     0.0630    -3.3310 ha         1 4KC       0.114000
     37 H15         -0.5580     0.0690    -3.3250 ha         1 4KC       0.112000
     38 H16         -1.7840     0.0290    -1.1800 ha         1 4KC       0.110000
     39 H131         2.2140    -3.1840     7.8310 hn         1 4KC       0.314133
@<TRIPOS>BOND
     1     1     2 ar  
     2     1    22 ar  
     3     1    23 1   
     4     2     5 1   
     5     2     8 ar  
     6     3     4 1   
     7     3     9 2   
     8     3    19 1   
     9     4    10 ar  
    10     4    12 ar  
    11     5    19 1   
    12     5    24 1   
    13     5    25 1   
    14     6     7 1   
    15     6    19 1   
    16     6    26 1   
    17     6    27 1   
    18     7     8 1   
    19     7    28 1   
    20     7    29 1   
    21     8    20 ar  
    22    10    11 ar  
    23    10    30 1   
    24    11    14 ar  
    25    11    31 1   
    26    12    13 ar  
    27    12    32 1   
    28    13    14 ar  
    29    13    33 1   
    30    14    15 1   
    31    15    16 1   
    32    15    17 2   
    33    15    18 2   
    34    16    34 1   
    35    16    35 1   
    36    16    39 1   
    37    20    21 ar  
    38    20    36 1   
    39    21    22 ar  
    40    21    37 1   
    41    22    38 1   
@<TRIPOS>SUBSTRUCTURE
     1 4KC         1 TEMP              0 ****  ****    0 ROOT
