@<TRIPOS>MOLECULE
4KD
   47    49     1     0     0
SMALL
bcc


@<TRIPOS>ATOM
      1 C3           0.0000     0.0000     0.0000 ca         1 4KD      -0.178000
      2 C4           1.3900     0.0000     0.0000 ca         1 4KD      -0.124300
      3 C9           4.1810    -1.1350     1.9390 c          1 4KD       0.582700
      4 C10          3.4500    -1.8930     2.9770 ca         1 4KD      -0.027600
      5 C5           2.0900     0.0000     1.3360 c3         1 4KD       0.093300
      6 C6           4.2020     0.4410     0.0510 c3         1 4KD       0.049000
      7 C7           3.5820    -0.0190    -1.2680 c3         1 4KD       0.019900
      8 C8           2.0780     0.0120    -1.1920 ca         1 4KD      -0.070300
      9 O            5.3780    -1.2910     1.8020 o          1 4KD      -0.620100
     10 C11          3.6900    -3.2570     3.1480 ca         1 4KD      -0.081000
     11 C12          3.0050    -3.9590     4.1180 ca         1 4KD       0.005500
     12 C15          2.5210    -1.2460     3.7940 ca         1 4KD      -0.081000
     13 C14          1.8440    -1.9590     4.7610 ca         1 4KD       0.005500
     14 C13          2.0820    -3.3130     4.9210 ca         1 4KD      -0.222500
     15 S            1.2100    -4.2160     6.1570 sy         1 4KD       0.936200
     16 N1           2.1080    -4.1370     7.5470 nz         1 4KD      -0.130500
     17 O1           0.0130    -3.4950     6.4120 o          1 4KD      -0.495800
     18 O2           1.2260    -5.5770     5.7470 o          1 4KD      -0.495800
     19 N            3.5190    -0.2700     1.1450 n          1 4KD      -0.124800
     20 C18          1.3750     0.0420    -2.3920 ca         1 4KD      -0.177000
     21 C17         -0.0070     0.0490    -2.3970 ca         1 4KD       0.142100
     22 C16         -0.7010     0.0250    -1.1920 ca         1 4KD       0.129100
     23 H1          -0.5380    -0.0190     0.9400 ha         1 4KD       0.119000
     24 H2           1.9670     0.9680     1.8060 h1         1 4KD       0.028200
     25 H3           1.6600    -0.7690     1.9670 h1         1 4KD       0.028200
     26 H4           5.2530     0.1770     0.0600 h1         1 4KD       0.046200
     27 H5           4.0410     1.5060     0.1660 h1         1 4KD       0.046200
     28 H6           3.9010     0.6560    -2.0520 hc         1 4KD       0.035200
     29 H7           3.8950    -1.0390    -1.4580 hc         1 4KD       0.035200
     30 H8           4.4120    -3.7640     2.5200 ha         1 4KD       0.145000
     31 H9           3.1880    -5.0180     4.2500 ha         1 4KD       0.127000
     32 H10          2.3340    -0.1870     3.6700 ha         1 4KD       0.145000
     33 H11          1.1210    -1.4590     5.3950 ha         1 4KD       0.127000
     34 H12          3.0090    -4.5420     7.3860 hn         1 4KD       0.314133
     35 H13          1.6410    -4.6410     8.2750 hn         1 4KD       0.314133
     36 H14          1.9150     0.0610    -3.3300 ha         1 4KD       0.132000
     37 O4          -0.6860     0.0800    -3.5760 os         1 4KD      -0.286900
     38 O3          -2.0620     0.0250    -1.1850 os         1 4KD      -0.283900
     39 C1           0.0950     0.1040    -4.7730 c3         1 4KD       0.241700
     40 C2          -2.7030    -0.0000     0.0920 c3         1 4KD       0.243700
     41 H15         -0.5640     0.1270    -5.6330 h1         1 4KD       0.001033
     42 H16          0.7240     0.9860    -4.7760 h1         1 4KD       0.001033
     43 H17          0.7160    -0.7830    -4.8170 h1         1 4KD       0.001033
     44 H18         -3.7780     0.0030    -0.0440 h1         1 4KD      -0.003300
     45 H19         -2.4100    -0.8960     0.6260 h1         1 4KD      -0.003300
     46 H20         -2.4090     0.8730     0.6620 h1         1 4KD      -0.003300
     47 H131         2.2160    -3.1810     7.8210 hn         1 4KD       0.314133
@<TRIPOS>BOND
     1     1     2 ar  
     2     1    22 ar  
     3     1    23 1   
     4     2     5 1   
     5     2     8 ar  
     6     3     4 1   
     7     3     9 2   
     8     3    19 1   
     9     4    10 ar  
    10     4    12 ar  
    11     5    19 1   
    12     5    24 1   
    13     5    25 1   
    14     6     7 1   
    15     6    19 1   
    16     6    26 1   
    17     6    27 1   
    18     7     8 1   
    19     7    28 1   
    20     7    29 1   
    21     8    20 ar  
    22    10    11 ar  
    23    10    30 1   
    24    11    14 ar  
    25    11    31 1   
    26    12    13 ar  
    27    12    32 1   
    28    13    14 ar  
    29    13    33 1   
    30    14    15 1   
    31    15    16 1   
    32    15    17 2   
    33    15    18 2   
    34    16    34 1   
    35    16    35 1   
    36    16    47 1   
    37    20    21 ar  
    38    20    36 1   
    39    21    22 ar  
    40    21    37 1   
    41    22    38 1   
    42    37    39 1   
    43    38    40 1   
    44    39    41 1   
    45    39    42 1   
    46    39    43 1   
    47    40    44 1   
    48    40    45 1   
    49    40    46 1   
@<TRIPOS>SUBSTRUCTURE
     1 4KD         1 TEMP              0 ****  ****    0 ROOT
