@<TRIPOS>MOLECULE
4KE
   38    39     1     0     0
SMALL
bcc


@<TRIPOS>ATOM
      1 C01         0.4230    0.8440    0.4420 c3        1 4KE     -0.056200
      2 C02         1.5830    0.3260   -0.4000 c3        1 4KE      0.115100
      3 C03         2.2620   -0.9020    0.2200 c3        1 4KE      0.089100
      4 C04         1.2390   -2.0380    0.4350 c3        1 4KE      0.153300
      5 C05        -0.0970   -1.5440    0.8760 c2        1 4KE     -0.263200
      6 C06        -0.4670   -0.2580    0.8860 ce        1 4KE     -0.135400
      7 C07        -1.8570    0.1730    1.3490 c         1 4KE      0.903800
      8 O08        -2.3010    1.2700    0.9080 o         1 4KE     -0.823800
      9 O09        -2.4810   -0.5880    2.1380 o         1 4KE     -0.823800
     10 O10         1.1540   -2.8280   -0.7440 oh        1 4KE     -0.607800
     11 O11         2.9190   -0.5910    1.4350 oh        1 4KE     -0.600800
     12 O12         2.5250    1.4210   -0.4620 os        1 4KE     -0.416900
     13 C13         3.4280    1.4330   -1.4800 c         1 4KE      0.642300
     14 C14         4.3660    2.5620   -1.3640 ce        1 4KE     -0.185200
     15 C15         4.6380    3.4890   -2.2870 cf        1 4KE     -0.053200
     16 C16         4.0910    3.6380   -3.6260 ca        1 4KE     -0.109800
     17 O17         3.4080    0.5300   -2.3230 o         1 4KE     -0.562000
     18 C18         3.9170    2.5470   -4.4900 ca        1 4KE     -0.072500
     19 C19         3.4250    2.7300   -5.7780 ca        1 4KE     -0.190000
     20 C20         3.0950    4.0250   -6.2070 ca        1 4KE      0.126100
     21 C21         3.2590    5.1280   -5.3560 ca        1 4KE     -0.190000
     22 C22         3.7610    4.9260   -4.0750 ca        1 4KE     -0.072500
     23 O23         2.6200    4.1490   -7.4940 oh        1 4KE     -0.500100
     24 H1          0.8190    1.3880    1.3420 hc        1 4KE      0.080200
     25 H2         -0.1820    1.5870   -0.1470 hc        1 4KE      0.080200
     26 H3          1.2440    0.0660   -1.4400 h1        1 4KE      0.071700
     27 H4          3.0870   -1.2570   -0.4620 h1        1 4KE      0.086700
     28 H5          1.6650   -2.7460    1.2050 h1        1 4KE      0.072700
     29 H6         -0.8000   -2.3200    1.2200 ha        1 4KE      0.153000
     30 H8          0.5730   -2.3600   -1.3570 ho        1 4KE      0.402000
     31 H9          2.2440   -0.2460    2.0350 ho        1 4KE      0.410000
     32 H10         4.8470    2.6070   -0.3700 ha        1 4KE      0.154000
     33 H11         5.3590    4.2870   -2.0160 ha        1 4KE      0.123000
     34 H12         4.1620    1.5280   -4.1410 ha        1 4KE      0.152500
     35 H13         3.2820    1.8780   -6.4570 ha        1 4KE      0.140500
     36 H14         2.9900    6.1360   -5.6960 ha        1 4KE      0.140500
     37 H15         3.8910    5.7870   -3.4010 ha        1 4KE      0.152500
     38 H16         2.3560    5.0710   -7.6240 ho        1 4KE      0.415000
@<TRIPOS>BOND
     1    1    2 1   
     2    1    6 1   
     3    1   24 1   
     4    1   25 1   
     5    2    3 1   
     6    2   12 1   
     7    2   26 1   
     8    3    4 1   
     9    3   11 1   
    10    3   27 1   
    11    4    5 1   
    12    4   10 1   
    13    4   28 1   
    14    5    6 2   
    15    5   29 1   
    16    6    7 1   
    17    7    8 1   
    18    7    9 1   
    19   10   30 1   
    20   11   31 1   
    21   12   13 1   
    22   13   14 1   
    23   13   17 2   
    24   14   15 2   
    25   14   32 1   
    26   15   16 1   
    27   15   33 1   
    28   16   18 ar  
    29   16   22 ar  
    30   18   19 ar  
    31   18   34 1   
    32   19   20 ar  
    33   19   35 1   
    34   20   21 ar  
    35   20   23 1   
    36   21   22 ar  
    37   21   36 1   
    38   22   37 1   
    39   23   38 1   
@<TRIPOS>SUBSTRUCTURE
     1 4KE         1 TEMP              0 ****  ****    0 ROOT
