@<TRIPOS>MOLECULE
4KF
   48    48     1     0     0
SMALL
bcc


@<TRIPOS>ATOM
      1 C4           0.0000     0.0000     0.0000 ca         1 4KF      -0.166000
      2 C5           1.3810     0.0000     0.0000 ca         1 4KF      -0.025300
      3 C6           2.1340     0.0010    -1.3050 c3         1 4KF       0.107300
      4 C8           3.0400     1.6280    -2.8760 c          1 4KF       0.576100
      5 C10          4.2210     3.7330    -2.3070 c3         1 4KF      -0.157700
      6 C13          4.3770     5.2090    -2.6800 c3         1 4KF      -0.023700
      7 C15          5.3070     5.8920    -1.6750 c3         1 4KF      -0.068400
      8 C20          1.3830     0.0000     2.3990 ca         1 4KF       0.178600
      9 C22          1.2890    -0.0160     4.7750 c3         1 4KF       0.245200
     10 C11          5.5710     3.0630    -2.3360 c          1 4KF       0.991600
     11 O12          6.5560     3.7000    -2.6250 o          1 4KF      -0.883300
     12 C14          3.0060     5.8880    -2.6500 c3         1 4KF      -0.021100
     13 C16          5.5620     7.3350    -2.1170 c3         1 4KF       0.006900
     14 C9           3.2910     3.0490    -3.3110 c3         1 4KF       0.147100
     15 O17          3.9010     3.0510    -4.6030 oh         1 4KF      -0.530800
     16 O18          3.4340     0.7070    -3.5590 o          1 4KF      -0.618100
     17 N7           2.3780     1.3810    -1.7280 ns         1 4KF      -0.209900
     18 C19          2.0740     0.0000     1.1960 ca         1 4KF      -0.166000
     19 C1          -0.6960     0.0010     1.2010 ca         1 4KF       0.178600
     20 O2          -2.0550     0.0060     1.2000 os         1 4KF      -0.305400
     21 C3          -2.7040     0.0050     2.4720 c3         1 4KF       0.245200
     22 C23         -0.0030    -0.0050     2.4020 ca         1 4KF      -0.328000
     23 O21          2.0650    -0.0050     3.5740 os         1 4KF      -0.305400
     24 H1          -0.5410    -0.0080    -0.9390 ha         1 4KF       0.131500
     25 H2           3.0810    -0.5100    -1.1760 h1         1 4KF       0.030200
     26 H3           1.5480    -0.5100    -2.0600 h1         1 4KF       0.030200
     27 H4           3.7990     3.6530    -1.3120 hc         1 4KF       0.023700
     28 H5           4.7980     5.2880    -3.6740 hc         1 4KF       0.052700
     29 H6           6.2480     5.3560    -1.6310 hc         1 4KF       0.044700
     30 H7           4.8450     5.8910    -0.6950 hc         1 4KF       0.044700
     31 H8           1.9510    -0.0220     5.6320 h1         1 4KF      -0.007467
     32 H9           0.6660    -0.9020     4.7930 h1         1 4KF      -0.007467
     33 H10          0.6620     0.8670     4.8080 h1         1 4KF      -0.007467
     34 H12          2.4500     5.5410    -1.7880 hc         1 4KF      -0.008300
     35 H13          3.1370     6.9620    -2.5870 hc         1 4KF      -0.008300
     36 H14          2.4620     5.6440    -3.5540 hc         1 4KF      -0.008300
     37 H15          5.5630     7.3860    -3.1990 hc         1 4KF      -0.012633
     38 H16          6.5220     7.6640    -1.7390 hc         1 4KF      -0.012633
     39 H17          4.7810     7.9760    -1.7270 hc         1 4KF      -0.012633
     40 H18          2.3500     3.5840    -3.3550 h1         1 4KF      -0.021300
     41 H19          3.2410     2.9140    -5.2630 ho         1 4KF       0.359000
     42 H20          2.0180     2.1420    -1.1860 hn         1 4KF       0.166500
     43 H21          3.1570     0.0020     1.1940 ha         1 4KF       0.131500
     44 H22         -3.7780     0.0100     2.3300 h1         1 4KF      -0.007467
     45 H23         -2.4170    -0.8820     3.0240 h1         1 4KF      -0.007467
     46 H24         -2.4100     0.8870     3.0280 h1         1 4KF      -0.007467
     47 H25         -0.5440    -0.0050     3.3410 ha         1 4KF       0.131000
     48 O1           5.6780     1.7580    -2.0420 o          1 4KF      -0.883300
@<TRIPOS>BOND
     1     1     2 ar  
     2     1    19 ar  
     3     1    24 1   
     4     2     3 1   
     5     2    18 ar  
     6     3    17 1   
     7     3    25 1   
     8     3    26 1   
     9     4    14 1   
    10     4    16 2   
    11     4    17 1   
    12     5     6 1   
    13     5    10 1   
    14     5    14 1   
    15     5    27 1   
    16     6     7 1   
    17     6    12 1   
    18     6    28 1   
    19     7    13 1   
    20     7    29 1   
    21     7    30 1   
    22     8    18 ar  
    23     8    22 ar  
    24     8    23 1   
    25     9    23 1   
    26     9    31 1   
    27     9    32 1   
    28     9    33 1   
    29    10    11 1   
    30    10    48 1   
    31    12    34 1   
    32    12    35 1   
    33    12    36 1   
    34    13    37 1   
    35    13    38 1   
    36    13    39 1   
    37    14    15 1   
    38    14    40 1   
    39    15    41 1   
    40    17    42 1   
    41    18    43 1   
    42    19    20 1   
    43    19    22 ar  
    44    20    21 1   
    45    21    44 1   
    46    21    45 1   
    47    21    46 1   
    48    22    47 1   
@<TRIPOS>SUBSTRUCTURE
     1 4KF         1 TEMP              0 ****  ****    0 ROOT
