@<TRIPOS>MOLECULE
molecule
   48    48     1     0     0
SMALL
bcc


@<TRIPOS>ATOM
      1 C4           0.0000     0.0000     0.0000 ca         1 4KF      -0.178000
      2 C5           1.3810     0.0000     0.0000 ca         1 4KF      -0.031300
      3 C6           2.1340     0.0010    -1.3050 c3         1 4KF       0.164300
      4 C8           3.0400     1.6280    -2.8760 c          1 4KF       0.662100
      5 C10          4.2210     3.7330    -2.3070 c3         1 4KF      -0.163700
      6 C13          4.3770     5.2090    -2.6800 c3         1 4KF      -0.045700
      7 C15          5.3070     5.8920    -1.6750 c3         1 4KF      -0.088400
      8 C20          1.3830     0.0000     2.3990 ca         1 4KF       0.162600
      9 C22          1.2890    -0.0160     4.7750 c3         1 4KF       0.131700
     10 C11          5.5710     3.0630    -2.3360 c          1 4KF       0.903600
     11 O12          6.5560     3.7000    -2.6250 o          1 4KF      -0.834800
     12 C14          3.0060     5.8880    -2.6500 c3         1 4KF      -0.100100
     13 C16          5.5620     7.3350    -2.1170 c3         1 4KF      -0.087100
     14 C9           3.2910     3.0490    -3.3110 c3         1 4KF       0.106100
     15 O17          3.9010     3.0510    -4.6030 oh         1 4KF      -0.549800
     16 O18          3.4340     0.7070    -3.5590 o          1 4KF      -0.585100
     17 N7           2.3780     1.3810    -1.7280 ns         1 4KF      -0.588900
     18 C19          2.0740     0.0000     1.1960 ca         1 4KF      -0.178000
     19 C1          -0.6960     0.0010     1.2010 ca         1 4KF       0.162600
     20 O2          -2.0550     0.0060     1.2000 os         1 4KF      -0.325900
     21 C3          -2.7040     0.0050     2.4720 c3         1 4KF       0.131700
     22 C23         -0.0030    -0.0050     2.4020 ca         1 4KF      -0.319000
     23 O21          2.0650    -0.0050     3.5740 os         1 4KF      -0.325900
     24 H1          -0.5410    -0.0080    -0.9390 ha         1 4KF       0.157000
     25 H2           3.0810    -0.5100    -1.1760 h1         1 4KF       0.060700
     26 H3           1.5480    -0.5100    -2.0600 h1         1 4KF       0.060700
     27 H4           3.7990     3.6530    -1.3120 hc         1 4KF       0.044700
     28 H5           4.7980     5.2880    -3.6740 hc         1 4KF       0.074700
     29 H6           6.2480     5.3560    -1.6310 hc         1 4KF       0.063700
     30 H7           4.8450     5.8910    -0.6950 hc         1 4KF       0.063700
     31 H8           1.9510    -0.0220     5.6320 h1         1 4KF       0.035367
     32 H9           0.6660    -0.9020     4.7930 h1         1 4KF       0.035367
     33 H10          0.6620     0.8670     4.8080 h1         1 4KF       0.035367
     34 H12          2.4500     5.5410    -1.7880 hc         1 4KF       0.016700
     35 H13          3.1370     6.9620    -2.5870 hc         1 4KF       0.016700
     36 H14          2.4620     5.6440    -3.5540 hc         1 4KF       0.016700
     37 H15          5.5630     7.3860    -3.1990 hc         1 4KF       0.016367
     38 H16          6.5220     7.6640    -1.7390 hc         1 4KF       0.016367
     39 H17          4.7810     7.9760    -1.7270 hc         1 4KF       0.016367
     40 H18          2.3500     3.5840    -3.3550 h1         1 4KF       0.005700
     41 H19          3.2410     2.9140    -5.2630 ho         1 4KF       0.376000
     42 H20          2.0180     2.1420    -1.1860 hn         1 4KF       0.305500
     43 H21          3.1570     0.0020     1.1940 ha         1 4KF       0.157000
     44 H22         -3.7780     0.0100     2.3300 h1         1 4KF       0.035367
     45 H23         -2.4170    -0.8820     3.0240 h1         1 4KF       0.035367
     46 H24         -2.4100     0.8870     3.0280 h1         1 4KF       0.035367
     47 H25         -0.5440    -0.0050     3.3410 ha         1 4KF       0.130000
     48 O1           5.6780     1.7580    -2.0420 o          1 4KF      -0.834800
@<TRIPOS>BOND
     1    16     4 2   
     2    12     6 1   
     3     4    14 1   
     4     4    17 1   
     5    14    15 1   
     6    14     5 1   
     7    17     3 1   
     8     3     2 1   
     9     6     5 1   
    10     6     7 1   
    11     5    10 1   
    12    13     7 1   
    13    18     2 ar  
    14    18     8 ar  
    15     2     1 ar  
    16    23     8 1   
    17    23     9 1   
    18     8    22 ar  
    19    10    11 1   
    20     1    19 ar  
    21    22    19 ar  
    22    19    20 1   
    23    20    21 1   
    24     1    24 1   
    25     3    25 1   
    26     3    26 1   
    27     5    27 1   
    28     6    28 1   
    29     7    29 1   
    30     7    30 1   
    31     9    31 1   
    32     9    32 1   
    33     9    33 1   
    34    12    34 1   
    35    12    35 1   
    36    12    36 1   
    37    13    37 1   
    38    13    38 1   
    39    13    39 1   
    40    14    40 1   
    41    15    41 1   
    42    17    42 1   
    43    18    43 1   
    44    21    44 1   
    45    21    45 1   
    46    21    46 1   
    47    22    47 1   
    48    10    48 1   
@<TRIPOS>SUBSTRUCTURE
     1 4KF         1 TEMP              0 ****  ****    0 ROOT
