@<TRIPOS>MOLECULE
4KG
   54    58     1     0     0
SMALL
bcc


@<TRIPOS>ATOM
      1 CAA          0.0000     0.0000     0.0000 ca         1 4KG      -0.091500
      2 CAB          1.3830     0.0000     0.0000 ca         1 4KG      -0.084000
      3 CAC          2.0730     0.0000     1.1980 ca         1 4KG      -0.075000
      4 CAD          1.3820     0.0020     2.3950 ca         1 4KG      -0.084000
      5 CAE         -0.0010     0.0020     2.3940 ca         1 4KG      -0.091500
      6 CAF         -0.6920     0.0010     1.1970 ca         1 4KG      -0.111300
      7 CAG         -2.1990     0.0010     1.1970 c3         1 4KG       0.254400
      8 OAH         -2.7070    -0.7030     2.3500 os         1 4KG      -0.469600
      9 CAI         -2.7440     1.4410     1.3770 c3         1 4KG      -0.054400
     10 CAJ         -4.1480     1.1820     1.9760 c3         1 4KG      -0.050400
     11 CAK         -4.0520    -0.2440     2.5620 c3         1 4KG       0.152100
     12 CAL         -4.3620    -0.2130     4.0600 c3         1 4KG      -0.003000
     13 NAM         -4.2690    -1.5690     4.6060 n          1 4KG       0.025700
     14 CAN         -5.3640    -2.3630     4.6190 c          1 4KG       0.635100
     15 OAO         -6.4320    -1.9720     4.1840 o          1 4KG      -0.610500
     16 CAP         -3.0770    -2.0220     5.0920 cc         1 4KG       0.057800
     17 NAQ         -1.9930    -1.1820     5.0530 nz         1 4KG       0.135400
     18 NAR         -2.9200    -3.2210     5.5950 nd         1 4KG      -0.394100
     19 CAS         -3.9480    -4.1000     5.6650 ca         1 4KG       0.080400
     20 CAT         -3.7800    -5.3770     6.2000 ca         1 4KG      -0.051000
     21 CAU         -5.2190    -3.7140     5.1780 ca         1 4KG      -0.169600
     22 CAV         -6.2910    -4.6040     5.2330 ca         1 4KG      -0.018000
     23 CAW         -6.1130    -5.8510     5.7590 ca         1 4KG      -0.067000
     24 CAX         -4.8630    -6.2450     6.2500 cp         1 4KG       0.031000
     25 CAY         -4.6910    -7.6040     6.8180 cp         1 4KG      -0.056000
     26 CAZ         -5.7700    -8.4860     6.8620 ca         1 4KG      -0.088500
     27 CBA         -5.6030    -9.7490     7.3910 ca         1 4KG      -0.102500
     28 CBB         -4.3700   -10.1410     7.8770 ca         1 4KG      -0.068000
     29 CBC         -3.2960    -9.2710     7.8360 ca         1 4KG      -0.102500
     30 CBD         -3.4490    -8.0070     7.3040 ca         1 4KG      -0.088500
     31 H1          -0.5410    -0.0010    -0.9380 ha         1 4KG       0.084000
     32 H2           1.9250    -0.0010    -0.9380 ha         1 4KG       0.111000
     33 H3           3.1560    -0.0000     1.1980 ha         1 4KG       0.117000
     34 H4           1.9230     0.0020     3.3330 ha         1 4KG       0.111000
     35 H5          -0.5420     0.0030     3.3320 ha         1 4KG       0.084000
     36 H6          -2.5850    -0.4380     0.2850 h1         1 4KG       0.041700
     37 H7          -2.8210     1.9450     0.4220 hc         1 4KG       0.039700
     38 H8          -2.1280     2.0010     2.0700 hc         1 4KG       0.039700
     39 H9          -4.9020     1.2220     1.1990 hc         1 4KG       0.039200
     40 H10         -4.3620     1.8990     2.7590 hc         1 4KG       0.039200
     41 H11         -4.7480    -0.8980     2.0510 h1         1 4KG       0.057700
     42 H12         -5.3630     0.1710     4.2140 h1         1 4KG       0.053200
     43 H13         -3.6480     0.4290     4.5630 h1         1 4KG       0.053200
     44 H14         -1.3190    -1.4750     5.7320 hn         1 4KG       0.238800
     45 H15         -1.5820    -1.2110     4.1410 hn         1 4KG       0.238800
     46 H16         -2.8140    -5.6860     6.5810 ha         1 4KG       0.135000
     47 H17         -7.2630    -4.3080     4.8550 ha         1 4KG       0.139000
     48 H18         -6.9490    -6.5380     5.8050 ha         1 4KG       0.133000
     49 H19         -6.7180    -8.2050     6.4200 ha         1 4KG       0.114500
     50 H20         -6.4410   -10.4350     7.4260 ha         1 4KG       0.113000
     51 H21         -4.2440   -11.1340     8.2920 ha         1 4KG       0.112000
     52 H22         -2.3320    -9.5820     8.2220 ha         1 4KG       0.113000
     53 H23         -2.4630    -7.5720     7.4130 ha         1 4KG       0.114500
     54 HAQ3        -2.2880    -0.2470     5.2560 hn         1 4KG       0.238800
@<TRIPOS>BOND
     1     1     2 ar  
     2     1     6 ar  
     3     1    31 1   
     4     2     3 ar  
     5     2    32 1   
     6     3     4 ar  
     7     3    33 1   
     8     4     5 ar  
     9     4    34 1   
    10     5     6 ar  
    11     5    35 1   
    12     6     7 1   
    13     7     8 1   
    14     7     9 1   
    15     7    36 1   
    16     8    11 1   
    17     9    10 1   
    18     9    37 1   
    19     9    38 1   
    20    10    11 1   
    21    10    39 1   
    22    10    40 1   
    23    11    12 1   
    24    11    41 1   
    25    12    13 1   
    26    12    42 1   
    27    12    43 1   
    28    13    14 1   
    29    13    16 1   
    30    14    15 2   
    31    14    21 1   
    32    16    17 1   
    33    16    18 2   
    34    17    44 1   
    35    17    45 1   
    36    17    54 1   
    37    18    19 1   
    38    19    20 ar  
    39    19    21 ar  
    40    20    24 ar  
    41    20    46 1   
    42    21    22 ar  
    43    22    23 ar  
    44    22    47 1   
    45    23    24 ar  
    46    23    48 1   
    47    24    25 1   
    48    25    26 ar  
    49    25    30 ar  
    50    26    27 ar  
    51    26    49 1   
    52    27    28 ar  
    53    27    50 1   
    54    28    29 ar  
    55    28    51 1   
    56    29    30 ar  
    57    29    52 1   
    58    30    53 1   
@<TRIPOS>SUBSTRUCTURE
     1 4KG         1 TEMP              0 ****  ****    0 ROOT
