@<TRIPOS>MOLECULE
molecule
   54    58     1     0     0
SMALL
bcc


@<TRIPOS>ATOM
      1 CAA          0.0000     0.0000     0.0000 ca         1 4KG      -0.120500
      2 CAB          1.3830     0.0000     0.0000 ca         1 4KG      -0.112500
      3 CAC          2.0730     0.0000     1.1980 ca         1 4KG      -0.107000
      4 CAD          1.3820     0.0020     2.3950 ca         1 4KG      -0.112500
      5 CAE         -0.0010     0.0020     2.3940 ca         1 4KG      -0.120500
      6 CAF         -0.6920     0.0010     1.1970 ca         1 4KG      -0.090300
      7 CAG         -2.1990     0.0010     1.1970 c3         1 4KG       0.186400
      8 OAH         -2.7070    -0.7030     2.3500 os         1 4KG      -0.476600
      9 CAI         -2.7440     1.4410     1.3770 c3         1 4KG      -0.107400
     10 CAJ         -4.1480     1.1820     1.9760 c3         1 4KG      -0.111400
     11 CAK         -4.0520    -0.2440     2.5620 c3         1 4KG       0.106100
     12 CAL         -4.3620    -0.2130     4.0600 c3         1 4KG       0.076000
     13 NAM         -4.2690    -1.5690     4.6060 n          1 4KG      -0.383300
     14 CAN         -5.3640    -2.3630     4.6190 c          1 4KG       0.718100
     15 OAO         -6.4320    -1.9720     4.1840 o          1 4KG      -0.573500
     16 CAP         -3.0770    -2.0220     5.0920 cc         1 4KG       0.497800
     17 NAQ         -1.9930    -1.1820     5.0530 nz         1 4KG      -0.744600
     18 NAR         -2.9200    -3.2210     5.5950 nd         1 4KG      -0.573100
     19 CAS         -3.9480    -4.1000     5.6650 ca         1 4KG       0.155400
     20 CAT         -3.7800    -5.3770     6.2000 ca         1 4KG      -0.080000
     21 CAU         -5.2190    -3.7140     5.1780 ca         1 4KG      -0.175600
     22 CAV         -6.2910    -4.6040     5.2330 ca         1 4KG      -0.051000
     23 CAW         -6.1130    -5.8510     5.7590 ca         1 4KG      -0.102000
     24 CAX         -4.8630    -6.2450     6.2500 cp         1 4KG       0.028000
     25 CAY         -4.6910    -7.6040     6.8180 cp         1 4KG      -0.055000
     26 CAZ         -5.7700    -8.4860     6.8620 ca         1 4KG      -0.110000
     27 CBA         -5.6030    -9.7490     7.3910 ca         1 4KG      -0.130500
     28 CBB         -4.3700   -10.1410     7.8770 ca         1 4KG      -0.100000
     29 CBC         -3.2960    -9.2710     7.8360 ca         1 4KG      -0.130500
     30 CBD         -3.4490    -8.0070     7.3040 ca         1 4KG      -0.110000
     31 H1          -0.5410    -0.0010    -0.9380 ha         1 4KG       0.108000
     32 H2           1.9250    -0.0010    -0.9380 ha         1 4KG       0.142000
     33 H3           3.1560    -0.0000     1.1980 ha         1 4KG       0.149000
     34 H4           1.9230     0.0020     3.3330 ha         1 4KG       0.142000
     35 H5          -0.5420     0.0030     3.3320 ha         1 4KG       0.108000
     36 H6          -2.5850    -0.4380     0.2850 h1         1 4KG       0.079700
     37 H7          -2.8210     1.9450     0.4220 hc         1 4KG       0.072700
     38 H8          -2.1280     2.0010     2.0700 hc         1 4KG       0.072700
     39 H9          -4.9020     1.2220     1.1990 hc         1 4KG       0.071700
     40 H10         -4.3620     1.8990     2.7590 hc         1 4KG       0.071700
     41 H11         -4.7480    -0.8980     2.0510 h1         1 4KG       0.093700
     42 H12         -5.3630     0.1710     4.2140 h1         1 4KG       0.078200
     43 H13         -3.6480     0.4290     4.5630 h1         1 4KG       0.078200
     44 H14         -1.3190    -1.4750     5.7320 hn         1 4KG       0.480133
     45 H15         -1.5820    -1.2110     4.1410 hn         1 4KG       0.480133
     46 H16         -2.8140    -5.6860     6.5810 ha         1 4KG       0.165000
     47 H17         -7.2630    -4.3080     4.8550 ha         1 4KG       0.172000
     48 H18         -6.9490    -6.5380     5.8050 ha         1 4KG       0.162000
     49 H19         -6.7180    -8.2050     6.4200 ha         1 4KG       0.138500
     50 H20         -6.4410   -10.4350     7.4260 ha         1 4KG       0.143000
     51 H21         -4.2440   -11.1340     8.2920 ha         1 4KG       0.143000
     52 H22         -2.3320    -9.5820     8.2220 ha         1 4KG       0.143000
     53 H23         -2.4630    -7.5720     7.4130 ha         1 4KG       0.138500
     54 HAQ3        -2.2880    -0.2470     5.2560 hn         1 4KG       0.480133
@<TRIPOS>BOND
     1    15    14 2
     2    10     9 1
     3    10    11 1
     4    12    11 1
     5    12    13 1
     6     9     7 1
     7    14    13 1
     8    14    21 1
     9    11     8 1
    10    22    21 ar
    11    22    23 ar
    12    13    16 1
    13    21    19 ar
    14    23    24 ar
    15     8     7 1
    16     7     6 1
    17    16    17 1
    18    16    18 2
    19    19    18 1
    20    19    20 ar
    21     1     6 ar
    22     1     2 ar
    23     6     5 ar
    24    24    20 ar
    25    24    25 1
    26    30    25 ar
    27    30    29 ar
    28    25    26 ar
    29     2     3 ar
    30     5     4 ar
    31    29    28 ar
    32    26    27 ar
    33     3     4 ar
    34    28    27 ar
    35     1    31 1
    36     2    32 1
    37     3    33 1
    38     4    34 1
    39     5    35 1
    40     7    36 1
    41     9    37 1
    42     9    38 1
    43    10    39 1
    44    10    40 1
    45    11    41 1
    46    12    42 1
    47    12    43 1
    48    17    44 1
    49    17    45 1
    50    20    46 1
    51    22    47 1
    52    23    48 1
    53    26    49 1
    54    27    50 1
    55    28    51 1
    56    29    52 1
    57    30    53 1
    58    54    17 1
@<TRIPOS>SUBSTRUCTURE
     1 4KG         1 TEMP              0 ****  ****    0 ROOT
