@<TRIPOS>MOLECULE
molecule
   31    33     1     0     0
SMALL
bcc


@<TRIPOS>ATOM
      1 C20          0.0000     0.0000     0.0000 ca         1 4KH      -0.233800
      2 C19          1.3790     0.0000     0.0000 ca         1 4KH       0.417700
      3 C17          1.4550    -0.0100     2.3070 ca         1 4KH       0.417700
      4 C7          -6.4460     0.0240    -0.3940 c          1 4KH       0.680700
      5 C4          -8.6430     0.0340    -2.0750 ca         1 4KH       0.141900
      6 C2          -8.9080     0.0410    -4.4560 ca         1 4KH      -0.105000
      7 C1          -7.5320     0.0370    -4.6190 ca         1 4KH      -0.138000
      8 C3          -9.4610     0.0400    -3.1900 ca         1 4KH      -0.166000
      9 C10         -4.1920     0.0150     0.3380 cc         1 4KH       0.559300
     10 C12         -2.1600     0.0060     1.2720 cd         1 4KH       0.445800
     11 C15         -0.6790     0.0010     1.2230 ca         1 4KH      -0.086500
     12 C16          0.0790    -0.0050     2.3990 ca         1 4KH      -0.233800
     13 C5          -7.2530     0.0300    -2.2330 ca         1 4KH      -0.213600
     14 C6          -6.7040     0.0310    -3.5170 ca         1 4KH      -0.097000
     15 O8          -7.1650     0.0240     0.5870 o          1 4KH      -0.476100
     16 N11         -2.9060     0.0100     0.1750 nd         1 4KH      -0.722000
     17 C13         -2.8420     0.0080     2.4320 cc         1 4KH      -0.190400
     18 S14         -4.5640     0.0200     2.0580 ss         1 4KH      -0.164300
     19 N18          2.0560     0.0000     1.1330 nb         1 4KH      -0.688000
     20 H1          -0.5500     0.0000    -0.9340 ha         1 4KH       0.147000
     21 H2           1.9130     0.0040    -0.9420 h4         1 4KH       0.024600
     22 H3           2.0500    -0.0120     3.2120 h4         1 4KH       0.024600
     23 H4          -4.8280    -0.0090    -1.6400 hn         1 4KH       0.372500
     24 H5          -9.5530     0.0460    -5.3260 ha         1 4KH       0.138000
     25 H6          -7.1060     0.0380    -5.6150 ha         1 4KH       0.139000
     26 H7         -10.5380     0.0430    -3.0700 ha         1 4KH       0.149000
     27 H8          -0.4080    -0.0090     3.3660 ha         1 4KH       0.147000
     28 H9          -5.6280     0.0270    -3.6470 ha         1 4KH       0.129000
     29 H10         -2.4080     0.0060     3.4240 h4         1 4KH       0.188000
     30 N9          -5.1290     0.0200    -0.6860 ns         1 4KH      -0.486400
     31 F21         -9.1840     0.0390    -0.8370 f          1 4KH      -0.122900
@<TRIPOS>BOND
     1     2    19 ar  
     2     2     1 ar  
     3    19     3 ar  
     4     1    11 ar  
     5     3    12 ar  
     6    11    12 ar  
     7    11    10 1   
     8    17    10 2   
     9    17    18 1   
    10    10    16 1   
    11    16     9 2   
    12    18     9 1   
    13     9    30 1   
    14    30     4 1   
    15    15     4 2   
    16     4    13 1   
    17    31     5 1   
    18    13     5 ar  
    19    13    14 ar  
    20     5     8 ar  
    21    14     7 ar  
    22     8     6 ar  
    23     7     6 ar  
    24     1    20 1   
    25     2    21 1   
    26     3    22 1   
    27    30    23 1   
    28     6    24 1   
    29     7    25 1   
    30     8    26 1   
    31    12    27 1   
    32    14    28 1   
    33    17    29 1   
@<TRIPOS>SUBSTRUCTURE
     1 4KH         1 TEMP              0 ****  ****    0 ROOT
