@<TRIPOS>MOLECULE
4KH
   31    33     1     0     0
SMALL
bcc


@<TRIPOS>ATOM
      1 C20         0.1490   -0.0560    0.0330 ca        1 4KH     -0.226300
      2 C19         1.5200   -0.3020    0.2320 ca        1 4KH      0.387700
      3 C17         1.2480   -0.5130    2.5040 ca        1 4KH      0.387700
      4 C7         -6.4070    0.4320   -0.8490 c         1 4KH      0.680700
      5 C4         -8.4590   -0.5880   -1.8860 ca        1 4KH      0.181900
      6 C2         -8.9530   -0.2470   -4.2330 ca        1 4KH     -0.079000
      7 C1         -7.7820    0.5000   -4.3740 ca        1 4KH     -0.149000
      8 C3         -9.2970   -0.7930   -3.0020 ca        1 4KH     -0.172000
      9 C10        -4.1170    0.2690    0.0070 cc        1 4KH      0.483300
     10 C12        -2.1270    0.2230    1.0230 cd        1 4KH      0.406800
     11 C15        -0.6970   -0.0400    1.1520 ca        1 4KH     -0.075500
     12 C16        -0.1340   -0.2770    2.4160 ca        1 4KH     -0.226300
     13 C5         -7.2760    0.1690   -2.0290 ca        1 4KH     -0.184600
     14 C6         -6.9480    0.7040   -3.2780 ca        1 4KH     -0.078000
     15 O8         -6.8310    0.9330    0.2080 o         1 4KH     -0.563100
     16 N11        -2.8140   -0.0730   -0.1480 nd        1 4KH     -0.677000
     17 C13        -2.9130    0.7820    2.0330 cc        1 4KH     -0.307400
     18 S14        -4.4910    0.9460    1.5600 ss        1 4KH      0.049700
     19 N18         2.0740   -0.5270    1.4390 nb        1 4KH     -0.663000
     20 H1         -0.2410    0.1170   -0.9780 ha        1 4KH      0.151000
     21 H2          2.2160   -0.3220   -0.6260 h4        1 4KH      0.021600
     22 H3          1.7240   -0.7030    3.4820 h4        1 4KH      0.021600
     23 H4         -4.7680   -0.3390   -1.8480 hn        1 4KH      0.343500
     24 H5         -9.6110   -0.4070   -5.1010 ha        1 4KH      0.145000
     25 H6         -7.5180    0.9310   -5.3510 ha        1 4KH      0.146000
     26 H7        -10.2170   -1.3840   -2.8800 ha        1 4KH      0.158000
     27 H8         -0.7570   -0.2880    3.3190 ha        1 4KH      0.151000
     28 H9         -6.0310    1.3040   -3.3920 ha        1 4KH      0.147000
     29 H10        -2.5360    1.0850    3.0090 h4        1 4KH      0.184000
     30 N9         -5.0660    0.0920   -0.9990 n         1 4KH     -0.526400
     31 F21        -8.7970   -1.1290   -0.6960 f         1 4KH     -0.117900
@<TRIPOS>BOND
     1    1    2 ar  
     2    1   11 ar  
     3    1   20 1   
     4    2   19 ar  
     5    2   21 1   
     6    3   12 ar  
     7    3   19 ar  
     8    3   22 1   
     9    4   13 1   
    10    4   15 2   
    11    4   30 1   
    12    5    8 ar  
    13    5   13 ar  
    14    5   31 1   
    15    6    7 ar  
    16    6    8 ar  
    17    6   24 1   
    18    7   14 ar  
    19    7   25 1   
    20    8   26 1   
    21    9   16 2   
    22    9   18 1   
    23    9   30 1   
    24   10   11 1   
    25   10   16 1   
    26   10   17 2   
    27   11   12 ar  
    28   12   27 1   
    29   13   14 ar  
    30   14   28 1   
    31   17   18 1   
    32   17   29 1   
    33   23   30 1   
@<TRIPOS>SUBSTRUCTURE
     1 4KH         1 TEMP              0 ****  ****    0 ROOT
