@<TRIPOS>MOLECULE
4KJ
   31    31     1     0     0
SMALL
bcc


@<TRIPOS>ATOM
      1 OD2          0.0000     0.0000     0.0000 o          1 4KJ      -0.547000
      2 C            1.3420     0.0000     0.0000 c2         1 4KJ       0.374000
      3 OD1          1.9460     0.0000     1.0460 o          1 4KJ      -0.547000
      4 CA           2.0960    -0.0030    -1.3050 c3         1 4KJ      -0.350000
      5 N            3.4680     0.4710    -1.0790 nz         1 4KJ       0.858000
      6 CB           2.1330    -1.4240    -1.8700 c3         1 4KJ      -0.107000
      7 CG           2.7880    -1.4060    -3.2530 DU         1 4KJ      -0.228000
      8 CD           2.8250    -2.8060    -3.8090 c2         1 4KJ      -0.383000
      9 NE           2.3050    -3.0560    -4.9670 n2         1 4KJ       0.028000
     10 CZ           2.4270    -4.3010    -5.5170 c2         1 4KJ      -0.061000
     11 NH1          2.9740    -5.2660    -4.8310 n2         1 4KJ      -0.154000
     12 NH2          1.9740    -4.5370    -6.7980 n3         1 4KJ       0.128000
     13 C2           1.3610    -3.4520    -7.5690 c3         1 4KJ      -0.067000
     14 OH           2.1010    -5.8270    -7.3670 os         1 4KJ      -0.184000
     15 C1           0.9810    -6.6810    -7.1260 c3         1 4KJ       0.033000
     16 H2           1.5990     0.6530    -2.0100 hx         1 4KJ       0.127000
     17 H3           3.8670     0.7640    -1.9490 hn         1 4KJ       0.008667
     18 H4           3.4550     1.2420    -0.4420 hn         1 4KJ       0.008667
     19 H6           2.7060    -2.0620    -1.2080 hc         1 4KJ       0.103500
     20 H7           1.1230    -1.8060    -1.9540 hc         1 4KJ       0.103500
     21 H8           3.7990    -1.0250    -3.1690 ha         1 4KJ       0.074000
     22 H9           2.2150    -0.7690    -3.9150 ha         1 4KJ       0.074000
     23 H10          1.9530    -2.4100    -3.3030 DU         1 4KJ       0.327000
     24 H11          3.3030    -5.0950    -3.9010 hn         1 4KJ       0.112000
     25 H12          2.0390    -2.6080    -7.6060 h1         1 4KJ       0.049333
     26 H13          1.1560    -3.7950    -8.5750 h1         1 4KJ       0.049333
     27 H14          0.4350    -3.1500    -7.0940 h1         1 4KJ       0.049333
     28 H15          1.3290    -7.6310    -6.7370 h1         1 4KJ       0.038000
     29 H16          0.3210    -6.2160    -6.4040 h1         1 4KJ       0.038000
     30 H17          0.4450    -6.8450    -8.0530 h1         1 4KJ       0.038000
     31 HN3          4.0200    -0.2730    -0.6990 hn         1 4KJ       0.008667
@<TRIPOS>BOND
     1     1     2 1   
     2     2     3 1   
     3     2     4 1   
     4     4     5 1   
     5     4     6 1   
     6     4    16 1   
     7     5    17 1   
     8     5    18 1   
     9     5    31 1   
    10     6     7 1   
    11     6    19 1   
    12     6    20 1   
    13     7     8 1   
    14     7    21 1   
    15     7    22 1   
    16     7    23 1   
    17     8     9 1   
    18     8    23 1   
    19     9    10 1   
    20    10    11 1   
    21    10    12 1   
    22    11    24 1   
    23    12    13 1   
    24    12    14 1   
    25    13    25 1   
    26    13    26 1   
    27    13    27 1   
    28    14    15 1   
    29    15    28 1   
    30    15    29 1   
    31    15    30 1   
@<TRIPOS>SUBSTRUCTURE
     1 4KJ         1 TEMP              0 ****  ****    0 ROOT
