@<TRIPOS>MOLECULE
molecule
   31    30     1     0     0
SMALL
bcc


@<TRIPOS>ATOM
      1 OD2          0.0000     0.0000     0.0000 o          1 4KJ      -0.772800
      2 C            1.3420     0.0000     0.0000 c          1 4KJ       0.869600
      3 OD1          1.9460     0.0000     1.0460 o          1 4KJ      -0.772800
      4 CA           2.0960    -0.0030    -1.3050 c3         1 4KJ      -0.018500
      5 N            3.4680     0.4710    -1.0790 nz         1 4KJ      -0.792600
      6 CB           2.1330    -1.4240    -1.8700 c3         1 4KJ      -0.086400
      7 CG           2.7880    -1.4060    -3.2530 c3         1 4KJ      -0.156700
      8 CD           2.8250    -2.8060    -3.8090 c2         1 4KJ       0.503200
      9 NE           2.3050    -3.0560    -4.9670 ne         1 4KJ      -0.692000
     10 CZ           2.4270    -4.3010    -5.5170 ce         1 4KJ       0.860200
     11 NH1          2.9740    -5.2660    -4.8310 n2         1 4KJ      -0.923100
     12 NH2          1.9740    -4.5370    -6.7980 nh         1 4KJ      -0.629100
     13 C2           1.3610    -3.4520    -7.5690 c3         1 4KJ       0.243100
     14 OH           2.1010    -5.8270    -7.3670 os         1 4KJ      -0.139100
     15 C1           0.9810    -6.6810    -7.1260 c3         1 4KJ       0.078700
     16 H2           1.5990     0.6530    -2.0100 hx         1 4KJ       0.106700
     17 H3           3.4560     1.2310    -0.4280 hn         1 4KJ       0.439800
     18 H4           3.8610     0.7800    -1.9460 hn         1 4KJ       0.439800
     19 H6           2.7060    -2.0620    -1.2080 hc         1 4KJ       0.092200
     20 H7           1.1230    -1.8060    -1.9540 hc         1 4KJ       0.092200
     21 H8           2.2150    -0.7690    -3.9150 hc         1 4KJ       0.052700
     22 H9           3.7990    -1.0250    -3.1690 hc         1 4KJ       0.052700
     23 H10          3.3560    -3.5850    -3.2760 h4         1 4KJ       0.019800
     24 H11          3.0640    -6.1770    -5.2340 hn         1 4KJ       0.416400
     25 H12          0.4180    -3.1730    -7.1130 h1         1 4KJ       0.045033
     26 H13          2.0250    -2.5960    -7.5780 h1         1 4KJ       0.045033
     27 H14          1.1860    -3.7850    -8.5850 h1         1 4KJ       0.045033
     28 H15          0.3840    -6.7570    -8.0270 h1         1 4KJ       0.048700
     29 H16          0.3780    -6.2690    -6.3260 h1         1 4KJ       0.048700
     30 H17          1.3330    -7.6660    -6.8420 h1         1 4KJ       0.048700
     31 HN3          4.0200    -0.2730    -0.7010 hn         1 4KJ       0.439800
@<TRIPOS>BOND
     1    15    14 1   
     2    13    12 1   
     3    14    12 1   
     4    12    10 1   
     5    10    11 2   
     6    10     9 1   
     7     8     9 2   
     8     8     7 1   
     9     3     2 1   
    10     6     7 1   
    11     6     4 1   
    12     2     4 1   
    13     2     1 1   
    14     4     5 1   
    15     4    16 1   
    16     5    17 1   
    17     5    18 1   
    18     6    19 1   
    19     6    20 1   
    20     7    21 1   
    21     7    22 1   
    22     8    23 1   
    23    11    24 1   
    24    13    25 1   
    25    13    26 1   
    26    13    27 1   
    27    15    28 1   
    28    15    29 1   
    29    15    30 1   
    30    31     5 1   
@<TRIPOS>SUBSTRUCTURE
     1 4KJ         1 TEMP              0 ****  ****    0 ROOT
