@<TRIPOS>MOLECULE
4KK
   38    40     1     0     0
SMALL
bcc


@<TRIPOS>ATOM
      1 C1           0.0000     0.0000     0.0000 c3         1 4KK       0.244700
      2 C3           2.0460     0.0000     1.2110 ca         1 4KK       0.156100
      3 C4           1.2910    -0.0000     2.3750 ca         1 4KK      -0.206000
      4 C5           1.9210     0.0000     3.6050 ca         1 4KK      -0.051000
      5 C6           3.3010    -0.0000     3.6760 ca         1 4KK      -0.128000
      6 C7           4.0560    -0.0010     2.5180 ca         1 4KK      -0.042300
      7 C8           3.4310    -0.0070     1.2850 ca         1 4KK      -0.124000
      8 C9           5.5610    -0.0000     2.6000 c3         1 4KK      -0.030100
      9 C10          6.0620    -1.4210     2.6270 c          1 4KK       0.541100
     10 O2           1.4290     0.0000     0.0000 os         1 4KK      -0.308900
     11 C13          7.8480    -2.9780     2.7240 cc         1 4KK       0.427300
     12 C15          9.3500    -4.6310     2.8070 cd         1 4KK       0.402800
     13 C16          8.2700    -5.4320     2.7510 cc         1 4KK      -0.143400
     14 C18         10.7300    -5.1660     2.8760 ca         1 4KK      -0.093500
     15 O11          5.2750    -2.3420     2.5850 o          1 4KK      -0.585100
     16 N12          7.3850    -1.6670     2.6990 ns         1 4KK      -0.064400
     17 N14          9.0930    -3.3300     2.7920 nd         1 4KK      -0.613000
     18 S17          6.8330    -4.4150     2.6780 ss         1 4KK      -0.236300
     19 C19         11.8320    -4.3050     2.9330 ca         1 4KK      -0.207800
     20 C20         13.0990    -4.8450     2.9980 ca         1 4KK       0.401200
     21 N21         13.2800    -6.1520     3.0070 nb         1 4KK      -0.583000
     22 C22         12.2690    -6.9980     2.9550 ca         1 4KK       0.401200
     23 C23         10.9670    -6.5440     2.8940 ca         1 4KK      -0.207800
     24 H1          -0.3610    -0.0010    -1.0210 h1         1 4KK      -0.002633
     25 H2          -0.3610     0.8850     0.5100 h1         1 4KK      -0.002633
     26 H3          -0.3610    -0.8840     0.5110 h1         1 4KK      -0.002633
     27 H4           0.2090     0.0030     2.3200 ha         1 4KK       0.120000
     28 H5           1.3320     0.0000     4.5140 ha         1 4KK       0.101000
     29 H6           3.7930     0.0020     4.6410 ha         1 4KK       0.105000
     30 H7           4.0220    -0.0070     0.3780 ha         1 4KK       0.116000
     31 H8           5.8730     0.5110     3.5020 hc         1 4KK       0.035200
     32 H9           5.9690     0.5100     1.7360 hc         1 4KK       0.035200
     33 H10          8.2820    -6.5150     2.7540 h4         1 4KK       0.165000
     34 H11          8.0350    -0.9070     2.7340 hn         1 4KK       0.177500
     35 H12         11.6920    -3.2310     2.9260 ha         1 4KK       0.122500
     36 H13         13.9580    -4.1860     3.0430 h4         1 4KK      -0.020900
     37 H14         12.4630    -8.0640     2.9660 h4         1 4KK      -0.020900
     38 H15         10.1420    -7.2440     2.8510 ha         1 4KK       0.122500
@<TRIPOS>BOND
     1     1    10 1   
     2     1    24 1   
     3     1    25 1   
     4     1    26 1   
     5     2     3 ar  
     6     2     7 ar  
     7     2    10 1   
     8     3     4 ar  
     9     3    27 1   
    10     4     5 ar  
    11     4    28 1   
    12     5     6 ar  
    13     5    29 1   
    14     6     7 ar  
    15     6     8 1   
    16     7    30 1   
    17     8     9 1   
    18     8    31 1   
    19     8    32 1   
    20     9    15 2   
    21     9    16 1   
    22    11    16 1   
    23    11    17 2   
    24    11    18 1   
    25    12    13 2   
    26    12    14 1   
    27    12    17 1   
    28    13    18 1   
    29    13    33 1   
    30    14    19 ar  
    31    14    23 ar  
    32    16    34 1   
    33    19    20 ar  
    34    19    35 1   
    35    20    21 ar  
    36    20    36 1   
    37    21    22 ar  
    38    22    23 ar  
    39    22    37 1   
    40    23    38 1   
@<TRIPOS>SUBSTRUCTURE
     1 4KK         1 TEMP              0 ****  ****    0 ROOT
