@<TRIPOS>MOLECULE
molecule
   38    40     1     0     0
SMALL
bcc


@<TRIPOS>ATOM
      1 C1           0.0000     0.0000     0.0000 c3         1 4KK       0.129700
      2 C3           2.0460     0.0000     1.2110 ca         1 4KK       0.145100
      3 C4           1.2910    -0.0000     2.3750 ca         1 4KK      -0.213000
      4 C5           1.9210     0.0000     3.6050 ca         1 4KK      -0.086000
      5 C6           3.3010    -0.0000     3.6760 ca         1 4KK      -0.148000
      6 C7           4.0560    -0.0010     2.5180 ca         1 4KK      -0.043300
      7 C8           3.4310    -0.0070     1.2850 ca         1 4KK      -0.139000
      8 C9           5.5610    -0.0000     2.6000 c3         1 4KK      -0.100100
      9 C10          6.0620    -1.4210     2.6270 c          1 4KK       0.654100
     10 O2           1.4290     0.0000     0.0000 os         1 4KK      -0.328900
     11 C13          7.8480    -2.9780     2.7240 cc         1 4KK       0.571300
     12 C15          9.3500    -4.6310     2.8070 cc         1 4KK       0.439800
     13 C16          8.2700    -5.4320     2.7510 cd         1 4KK      -0.222400
     14 C18         10.7300    -5.1660     2.8760 ca         1 4KK      -0.080500
     15 O11          5.2750    -2.3420     2.5850 o          1 4KK      -0.564100
     16 N12          7.3850    -1.6670     2.6990 ns         1 4KK      -0.522400
     17 N14          9.0930    -3.3300     2.7920 nc         1 4KK      -0.734000
     18 S17          6.8330    -4.4150     2.6780 ss         1 4KK      -0.106300
     19 C19         11.8320    -4.3050     2.9330 ca         1 4KK      -0.235800
     20 C20         13.0990    -4.8450     2.9980 ca         1 4KK       0.415200
     21 N21         13.2800    -6.1520     3.0070 nb         1 4KK      -0.692000
     22 C22         12.2690    -6.9980     2.9550 ca         1 4KK       0.415200
     23 C23         10.9670    -6.5440     2.8940 ca         1 4KK      -0.235800
     24 H1          -0.3610    -0.0010    -1.0210 h1         1 4KK       0.042033
     25 H2          -0.3610     0.8850     0.5100 h1         1 4KK       0.042033
     26 H3          -0.3610    -0.8840     0.5110 h1         1 4KK       0.042033
     27 H4           0.2090     0.0030     2.3200 ha         1 4KK       0.136000
     28 H5           1.3320     0.0000     4.5140 ha         1 4KK       0.132000
     29 H6           3.7930     0.0020     4.6410 ha         1 4KK       0.130000
     30 H7           4.0220    -0.0070     0.3780 ha         1 4KK       0.143000
     31 H8           5.8730     0.5110     3.5020 hc         1 4KK       0.074200
     32 H9           5.9690     0.5100     1.7360 hc         1 4KK       0.074200
     33 H10          8.2820    -6.5150     2.7540 h4         1 4KK       0.182000
     34 H11          8.0350    -0.9070     2.7340 hn         1 4KK       0.344500
     35 H12         11.6920    -3.2310     2.9260 ha         1 4KK       0.146500
     36 H13         13.9580    -4.1860     3.0430 h4         1 4KK       0.023100
     37 H14         12.4630    -8.0640     2.9660 h4         1 4KK       0.023100
     38 H15         10.1420    -7.2440     2.8510 ha         1 4KK       0.146500
@<TRIPOS>BOND
     1    21    20 ar  
     2    21    22 ar  
     3    20    19 ar  
     4    22    23 ar  
     5    19    14 ar  
     6    23    14 ar  
     7    14    12 1   
     8    12    13 2   
     9    12    17 1   
    10    13    18 1   
    11    17    11 2   
    12    18    11 1   
    13    11    16 1   
    14    16     9 1   
    15     9    15 2   
    16     9     8 1   
    17     8     6 1   
    18     5     6 ar  
    19     5     4 ar  
    20     6     7 ar  
    21     4     3 ar  
    22     7     2 ar  
    23     3     2 ar  
    24     2    10 1   
    25    10     1 1   
    26     1    24 1   
    27     1    25 1   
    28     1    26 1   
    29     3    27 1   
    30     4    28 1   
    31     5    29 1   
    32     7    30 1   
    33     8    31 1   
    34     8    32 1   
    35    13    33 1   
    36    16    34 1   
    37    19    35 1   
    38    20    36 1   
    39    22    37 1   
    40    23    38 1   
@<TRIPOS>SUBSTRUCTURE
     1 4KK         1 TEMP              0 ****  ****    0 ROOT
