@<TRIPOS>MOLECULE
molecule
   21    22     1     0     0
SMALL
bcc


@<TRIPOS>ATOM
      1 OAL          0.0000     0.0000     0.0000 oh         1 4KL      -0.524100
      2 CAJ          1.3570     0.0000     0.0000 ca         1 4KL       0.093100
      3 CAI          2.0680     0.0000     1.1850 ca         1 4KL      -0.245300
      4 CAH          3.4680     0.0000     1.1510 ca         1 4KL       0.438800
      5 CAM          4.2230    -0.0010     2.4260 c          1 4KL       0.777100
      6 OAN          5.5690    -0.0010     2.4110 o          1 4KL      -0.810800
      7 OAO          3.6270    -0.0020     3.4840 o          1 4KL      -0.810800
      8 NAG          4.1320     0.0010     0.0100 nb         1 4KL      -0.629000
      9 CAD          3.5020     0.0020    -1.1640 ca         1 4KL       0.406600
     10 CAE          2.0850    -0.0050    -1.2120 ca         1 4KL      -0.174300
     11 CAF          1.4320    -0.0050    -2.4520 ca         1 4KL      -0.110000
     12 CAA          2.1620     0.0020    -3.6020 ca         1 4KL      -0.147000
     13 CAB          3.5550     0.0070    -3.5650 ca         1 4KL      -0.188000
     14 CAC          4.2270     0.0030    -2.3760 ca         1 4KL       0.075800
     15 OAK          5.5850     0.0030    -2.3600 oh         1 4KL      -0.494100
     16 H1          -0.3140    -0.7830     0.4210 ho         1 4KL       0.413000
     17 H2           1.4610     0.0620     2.0790 ha         1 4KL       0.156000
     18 H4           0.3500    -0.0090    -2.4960 ha         1 4KL       0.130000
     19 H5           1.6530     0.0050    -4.5580 ha         1 4KL       0.112000
     20 H6           4.1130     0.0120    -4.4940 ha         1 4KL       0.121000
     21 H7           5.9020    -0.8400    -2.6390 ho         1 4KL       0.410000
@<TRIPOS>BOND
     1     7     5 1   
     2     6     5 1   
     3     5     4 1   
     4    15    14 1   
     5     8     4 ar  
     6     8     9 ar  
     7     4     3 ar  
     8    14     9 ar  
     9    14    13 ar  
    10     9    10 ar  
    11    13    12 ar  
    12     3     2 ar  
    13    10     2 ar  
    14    10    11 ar  
    15    12    11 ar  
    16     2     1 1   
    17     1    16 1   
    18     3    17 1   
    19    11    18 1   
    20    12    19 1   
    21    13    20 1   
    22    15    21 1   
@<TRIPOS>SUBSTRUCTURE
     1 4KL         1 TEMP              0 ****  ****    0 ROOT
