@<TRIPOS>MOLECULE
4KL
   21    22     1     0     0
SMALL
bcc


@<TRIPOS>ATOM
      1 OAL         0.0510    0.5740   -0.1070 oh        1 4KL     -0.514100
      2 CAJ         1.4130    0.3650   -0.0440 ca        1 4KL      0.126100
      3 CAI         2.1210    0.3430    1.1360 ca        1 4KL     -0.301300
      4 CAH         3.5390    0.1160    1.0910 ca        1 4KL      0.432800
      5 CAM         4.2680    0.1050    2.4620 c         1 4KL      0.826100
      6 OAN         4.6860    1.2120    2.8810 o         1 4KL     -0.800300
      7 OAO         4.3300   -1.0020    3.0510 o         1 4KL     -0.800300
      8 NAG         4.2010   -0.0730   -0.0410 nb        1 4KL     -0.703000
      9 CAD         3.4940   -0.0510   -1.2270 ca        1 4KL      0.367600
     10 CAE         2.0860    0.1650   -1.2950 ca        1 4KL     -0.147300
     11 CAF         1.4130    0.1770   -2.5400 ca        1 4KL     -0.125000
     12 CAA         2.1100   -0.0200   -3.7070 ca        1 4KL     -0.135000
     13 CAB         3.5020   -0.2370   -3.6840 ca        1 4KL     -0.185000
     14 CAC         4.1830   -0.2540   -2.4790 ca        1 4KL      0.079800
     15 OAK         5.5390   -0.4720   -2.5470 oh        1 4KL     -0.519100
     16 H1         -0.2620    0.6920    0.8020 ho        1 4KL      0.414000
     17 H2          1.6460    0.4900    2.1140 ha        1 4KL      0.149000
     18 H4          0.3260    0.3480   -2.5430 ha        1 4KL      0.134000
     19 H5          1.5920   -0.0120   -4.6760 ha        1 4KL      0.115000
     20 H6          4.0530   -0.3940   -4.6220 ha        1 4KL      0.132000
     21 H7          5.9020   -0.4610   -1.6470 ho        1 4KL      0.453000
@<TRIPOS>BOND
     1    1    2 1   
     2    1   16 1   
     3    2    3 ar  
     4    2   10 ar  
     5    3    4 ar  
     6    3   17 1   
     7    4    5 1   
     8    4    8 ar  
     9    5    6 1   
    10    5    7 1   
    11    8    9 ar  
    12    9   10 ar  
    13    9   14 ar  
    14   10   11 ar  
    15   11   12 ar  
    16   11   18 1   
    17   12   13 ar  
    18   12   19 1   
    19   13   14 ar  
    20   13   20 1   
    21   14   15 1   
    22   15   21 1   
@<TRIPOS>SUBSTRUCTURE
     1 4KL         1 TEMP              0 ****  ****    0 ROOT
