@<TRIPOS>MOLECULE
4KM
   54    54     1     0     0
SMALL
bcc


@<TRIPOS>ATOM
      1 C2         -0.4600    0.5040   -0.0630 ca        1 4KM     -0.067000
      2 C3          0.9180    0.3040   -0.1260 ca        1 4KM     -0.098000
      3 C18         7.9280   -0.2450    1.7660 ca        1 4KM     -0.144500
      4 C20         8.4630   -0.9570    4.0270 ca        1 4KM     -0.144500
      5 C17         6.5780   -0.4480    2.0310 ca        1 4KM     -0.119500
      6 C21         7.1080   -1.1630    4.2670 ca        1 4KM     -0.119500
      7 C6         -0.3960    0.0900    2.3240 ca        1 4KM     -0.044000
      8 C5          0.9870   -0.1240    2.2570 ca        1 4KM     -0.093600
      9 C1         -1.1120    0.3960    1.1660 ca        1 4KM     -0.160300
     10 C4          1.6520   -0.0160    1.0230 ca        1 4KM     -0.114600
     11 C19         8.8960   -0.4890    2.7670 ca        1 4KM      0.054600
     12 C16         6.1590   -0.9060    3.2800 ca        1 4KM     -0.152000
     13 C7          1.7040   -0.4620    3.5090 c         1 4KM      0.658700
     14 C24        11.2680   -1.1260    2.9380 c         1 4KM      0.664100
     15 C26        12.6860   -0.8650    2.4870 c3        1 4KM     -0.172100
     16 C23        10.6000    0.8290    1.6120 c3        1 4KM      0.080300
     17 C14         3.1130   -0.2330    0.8850 c         1 4KM      0.556500
     18 C27        -2.6160    0.6340    1.2510 c3        1 4KM      0.688200
     19 C10         1.6550   -0.1490    5.9360 c3        1 4KM      0.174800
     20 O8          2.7210   -1.1510    3.6300 o         1 4KM     -0.551000
     21 O25        11.0120   -2.0880    3.6840 o         1 4KM     -0.590100
     22 O15         3.7450    0.1800   -0.0900 o         1 4KM     -0.517100
     23 O9          1.1040    0.0710    4.6070 os        1 4KM     -0.437900
     24 F28        -2.9610    1.9410    1.4990 f         1 4KM     -0.231967
     25 F29        -3.3060    0.3140    0.1080 f         1 4KM     -0.231967
     26 F30        -3.2490   -0.0770    2.2410 f         1 4KM     -0.231967
     27 H1         -1.0320    0.7450   -0.9740 ha        1 4KM      0.162000
     28 H2          1.4500    0.4000   -1.0880 ha        1 4KM      0.170000
     29 H3          8.2310    0.1020    0.7670 ha        1 4KM      0.144500
     30 H4          9.1980   -1.1850    4.8160 ha        1 4KM      0.144500
     31 H5          5.8370   -0.2490    1.2380 ha        1 4KM      0.135500
     32 H6          6.7870   -1.5350    5.2520 ha        1 4KM      0.135500
     33 H7         -0.9160    0.0170    3.2950 ha        1 4KM      0.175000
     34 H8         13.0770    0.0630    2.9690 hc        1 4KM      0.066700
     35 H9         13.3200   -1.7300    2.8030 hc        1 4KM      0.066700
     36 H10        12.7430   -0.7580    1.3780 hc        1 4KM      0.066700
     37 H11         0.6750    1.7010    6.5460 hc        1 4KM      0.053811
     38 H12        -0.3440    0.2120    6.7310 hc        1 4KM      0.053811
     39 H13         1.0210    0.5260    7.8930 hc        1 4KM      0.053811
     40 H14         3.7750   -0.1610    5.4260 hc        1 4KM      0.053811
     41 H15         3.0570    1.4890    5.6730 hc        1 4KM      0.053811
     42 H16         3.3840    0.4170    7.1030 hc        1 4KM      0.053811
     43 H17         1.8860   -1.7570    7.3630 hc        1 4KM      0.053811
     44 H18         0.6210   -2.0540    6.0930 hc        1 4KM      0.053811
     45 H19         2.3820   -2.1870    5.6690 hc        1 4KM      0.053811
     46 H20        10.7570    0.4500    0.5660 h1        1 4KM      0.042700
     47 H21         9.7720    1.5870    1.6010 h1        1 4KM      0.042700
     48 H22        11.5390    1.3400    1.9550 h1        1 4KM      0.042700
     49 H23         3.6080   -0.8010    1.7060 h4        1 4KM      0.056200
     50 H24         5.0890   -1.0700    3.4830 ha        1 4KM      0.146000
     51 N22        10.2700   -0.2450    2.5090 n         1 4KM     -0.390000
     52 C11         0.6880    0.6230    6.8320 c3        1 4KM     -0.114433
     53 C12         3.0530    0.4340    6.0370 c3        1 4KM     -0.114433
     54 C13         1.6350   -1.6280    6.2830 c3        1 4KM     -0.114433
@<TRIPOS>BOND
     1    1    2 ar  
     2    1    9 ar  
     3    1   27 1   
     4    2   10 ar  
     5    2   28 1   
     6    3    5 ar  
     7    3   11 ar  
     8    3   29 1   
     9    4    6 ar  
    10    4   11 ar  
    11    4   30 1   
    12    5   12 ar  
    13    5   31 1   
    14    6   12 ar  
    15    6   32 1   
    16    7    8 ar  
    17    7    9 ar  
    18    7   33 1   
    19    8   10 ar  
    20    8   13 1   
    21    9   18 1   
    22   10   17 1   
    23   11   51 1   
    24   12   50 1   
    25   13   20 2   
    26   13   23 1   
    27   14   15 1   
    28   14   21 2   
    29   14   51 1   
    30   15   34 1   
    31   15   35 1   
    32   15   36 1   
    33   16   46 1   
    34   16   47 1   
    35   16   48 1   
    36   16   51 1   
    37   17   22 2   
    38   17   49 1   
    39   18   24 1   
    40   18   25 1   
    41   18   26 1   
    42   19   23 1   
    43   19   52 1   
    44   19   53 1   
    45   19   54 1   
    46   37   52 1   
    47   38   52 1   
    48   39   52 1   
    49   40   53 1   
    50   41   53 1   
    51   42   53 1   
    52   43   54 1   
    53   44   54 1   
    54   45   54 1   
@<TRIPOS>SUBSTRUCTURE
     1 4KM         1 TEMP              0 ****  ****    0 ROOT
