@<TRIPOS>MOLECULE
molecule
   54    55     1     0     0
SMALL
bcc


@<TRIPOS>ATOM
      1 C2           0.0000     0.0000     0.0000 ca         1 4KM      -0.060000
      2 C3           1.3830     0.0000     0.0000 ca         1 4KM      -0.101000
      3 C18          7.5270    -0.0160     1.3270 ca         1 4KM      -0.110000
      4 C20          7.3650    -0.7540     3.6100 ca         1 4KM      -0.110000
      5 C17          6.1490    -0.0050     1.2340 ca         1 4KM      -0.128500
      6 C21          5.9870    -0.7320     3.5180 ca         1 4KM      -0.128500
      7 C6          -0.0180    -0.0040     2.3940 ca         1 4KM      -0.032000
      8 C5           1.3780     0.0000     2.4020 ca         1 4KM      -0.158600
      9 C1          -0.6990    -0.0000     1.1940 ca         1 4KM      -0.197300
     10 C4           2.0760     0.0000     1.1930 ca         1 4KM       0.026700
     11 C19          8.1390    -0.3900     2.5150 ca         1 4KM       0.047600
     12 C16          5.3770    -0.3630     2.3280 ca         1 4KM       0.102100
     13 C7           2.1130    -0.0040     3.6830 c          1 4KM       0.668700
     14 C24         10.1940    -1.5740     2.7280 c          1 4KM       0.641100
     15 C26         11.6870    -1.5810     2.9330 c3         1 4KM      -0.162100
     16 C23         10.2830     0.8580     2.5830 c3         1 4KM      -0.051700
     17 C14          3.5830     0.0040     1.1910 c3         1 4KM       0.215700
     18 C27         -2.2060     0.0060     1.1850 c3         1 4KM       0.676200
     19 C10          2.2240    -0.0170     6.0680 c3         1 4KM       0.159800
     20 O8           3.3270    -0.0010     3.6870 o          1 4KM      -0.590000
     21 O25          9.5840    -2.6200     2.6680 o          1 4KM      -0.589100
     22 O15          4.0580     0.0030    -0.1570 os         1 4KM      -0.645900
     23 O9           1.4360    -0.0120     4.8480 os         1 4KM      -0.415900
     24 F28         -2.6720     1.1490     1.8430 f          1 4KM      -0.221967
     25 F29         -2.6630     0.0100    -0.1370 f          1 4KM      -0.221967
     26 F30         -2.6810    -1.1360     1.8380 f          1 4KM      -0.221967
     27 H1          -0.5390     0.0010    -0.9400 ha         1 4KM       0.158000
     28 H2           1.9240     0.0000    -0.9390 ha         1 4KM       0.187000
     29 H3           8.1300     0.2650     0.4720 ha         1 4KM       0.155500
     30 H4           7.8420    -1.0440     4.5380 ha         1 4KM       0.155500
     31 H5           5.6710     0.2850     0.3050 ha         1 4KM       0.200000
     32 H6           5.3830    -1.0130     4.3720 ha         1 4KM       0.200000
     33 H7          -0.5660    -0.0040     3.3290 ha         1 4KM       0.162000
     34 H8          11.9300    -1.0350     3.8370 hc         1 4KM       0.062700
     35 H9          12.0330    -2.6040     3.0260 hc         1 4KM       0.062700
     36 H10         12.1710    -1.1120     2.0860 hc         1 4KM       0.062700
     37 H11          0.6650    -0.9120     7.2470 hc         1 4KM       0.050589
     38 H12          1.8750    -0.0300     8.1890 hc         1 4KM       0.050589
     39 H13          0.6600     0.8570     7.2570 hc         1 4KM       0.050589
     40 H14          2.5810     2.0590     5.6400 hc         1 4KM       0.050589
     41 H15          4.0290     1.0450     5.5850 hc         1 4KM       0.050589
     42 H16          3.3190     1.4880     7.1430 hc         1 4KM       0.050589
     43 H17          3.3240    -1.5300     7.1270 hc         1 4KM       0.050589
     44 H18          2.5950    -2.0840     5.6130 hc         1 4KM       0.050589
     45 H19          4.0380    -1.0610     5.5780 hc         1 4KM       0.050589
     46 H20         10.8790     0.9450     3.4830 h1         1 4KM       0.085700
     47 H21          9.2320     0.8630     2.8430 h1         1 4KM       0.085700
     48 H22         10.4970     1.6930     1.9270 h1         1 4KM       0.085700
     49 H23          3.9480    -0.8780     1.7030 h1         1 4KM       0.093700
     50 H24          3.9430     0.8910     1.7000 h1         1 4KM       0.093700
     51 N22          9.5360    -0.4020     2.6100 n          1 4KM      -0.383000
     52 C11          1.2880    -0.0260     7.2790 c3         1 4KM      -0.104767
     53 C12          3.1020     1.2350     6.1120 c3         1 4KM      -0.104767
     54 C13          3.1100    -1.2640     6.0990 c3         1 4KM      -0.104767
@<TRIPOS>BOND
     1    53    19 1
     2    54    19 1
     3    19    23 1
     4    19    52 1
     5    23    13 1
     6     4     6 ar
     7     4    11 ar
     8     6    12 ar
     9    15    14 1
    10    21    14 2
    11    14    51 1
    12    17    10 1
    13    17    22 1
    14    13     8 1
    15    13    20 2
    16    51    11 1
    17    51    16 1
    18    10     8 ar
    19    10     2 ar
    20     8     7 ar
    21    11     3 ar
    22     2     1 ar
    23     7     9 ar
    24    24    18 1
    25    12    22 1
    26    12     5 ar
    27     1     9 ar
    28     9    18 1
    29    26    18 1
    30    18    25 1
    31     3     5 ar
    32     1    27 1
    33     2    28 1
    34     3    29 1
    35     4    30 1
    36     5    31 1
    37     6    32 1
    38     7    33 1
    39    15    34 1
    40    15    35 1
    41    15    36 1
    42    52    37 1
    43    52    38 1
    44    52    39 1
    45    53    40 1
    46    53    41 1
    47    53    42 1
    48    54    43 1
    49    54    44 1
    50    54    45 1
    51    16    46 1
    52    16    47 1
    53    16    48 1
    54    17    49 1
    55    17    50 1
@<TRIPOS>SUBSTRUCTURE
     1 4KM         1 TEMP              0 ****  ****    0 ROOT
