@<TRIPOS>MOLECULE
molecule
   31    32     1     0     0
SMALL
bcc


@<TRIPOS>ATOM
      1 CAO          0.0000     0.0000     0.0000 ca         1 4KN      -0.165000
      2 CAQ          1.3820     0.0000     0.0000 ca         1 4KN      -0.129000
      3 CAS          2.0750     0.0000     1.1980 ca         1 4KN       0.095900
      4 FAT          3.4260    -0.0010     1.1970 f          1 4KN      -0.142900
      5 CAR          1.3860     0.0020     2.3990 ca         1 4KN      -0.129000
      6 CAP          0.0040     0.0030     2.4020 ca         1 4KN      -0.165000
      7 CAN         -0.6920     0.0020     1.2020 ca         1 4KN       0.127100
      8 OAM         -2.0520     0.0080     1.2040 os         1 4KN      -0.300900
      9 CAL         -2.6990     0.0090     2.4780 c3         1 4KN       0.043400
     10 CAJ         -4.1930     0.0170     2.2830 c          1 4KN       0.568700
     11 OAK         -4.6580     0.0200     1.1620 o          1 4KN      -0.466100
     12 CAC         -5.0830     0.0190     3.4460 ca         1 4KN      -0.199600
     13 CAB         -4.5490     0.0150     4.7420 ca         1 4KN      -0.075000
     14 CAA         -5.3790     0.0180     5.8250 ca         1 4KN      -0.178000
     15 CAF         -6.7600     0.0260     5.6550 ca         1 4KN       0.131100
     16 OAI         -7.5750     0.0290     6.7410 oh         1 4KN      -0.510100
     17 CAE         -7.3100     0.0300     4.3770 ca         1 4KN       0.034100
     18 OAH         -8.6620     0.0370     4.2170 oh         1 4KN      -0.508100
     19 CAD         -6.4780     0.0310     3.2670 ca         1 4KN       0.167100
     20 OAG         -7.0070     0.0350     2.0170 oh         1 4KN      -0.487100
     21 H1          -0.5420    -0.0000    -0.9380 ha         1 4KN       0.145500
     22 H2           1.9230    -0.0020    -0.9380 ha         1 4KN       0.148000
     23 H3           1.9290     0.0020     3.3360 ha         1 4KN       0.148000
     24 H4          -0.5350     0.0050     3.3410 ha         1 4KN       0.145500
     25 H5          -2.4030     0.8920     3.0320 h1         1 4KN       0.056200
     26 H6          -2.4110    -0.8770     3.0310 h1         1 4KN       0.056200
     27 H7          -3.4750     0.0090     4.8840 ha         1 4KN       0.138000
     28 H8          -4.9600     0.0150     6.8240 ha         1 4KN       0.148000
     29 H9          -7.5940    -0.8330     7.1230 ho         1 4KN       0.432000
     30 H10         -8.9710     0.9270     4.1920 ho         1 4KN       0.434000
     31 H11         -7.3910    -0.8060     1.8360 ho         1 4KN       0.438000
@<TRIPOS>BOND
     1    20    19 1   
     2    11    10 2   
     3    18    17 1   
     4     2     1 ar  
     5     2     3 ar  
     6     1     7 ar  
     7     4     3 1   
     8    19    17 ar  
     9    19    12 ar  
    10     3     5 ar  
    11    17    15 ar  
    12    10    12 1   
    13    10     9 1   
    14     7     8 1   
    15     7     6 ar  
    16     8     9 1   
    17     5     6 ar  
    18    12    13 ar  
    19    15    16 1   
    20    15    14 ar  
    21    13    14 ar  
    22     1    21 1   
    23     2    22 1   
    24     5    23 1   
    25     6    24 1   
    26     9    25 1   
    27     9    26 1   
    28    13    27 1   
    29    14    28 1   
    30    16    29 1   
    31    18    30 1   
    32    20    31 1   
@<TRIPOS>SUBSTRUCTURE
     1 4KN         1 TEMP              0 ****  ****    0 ROOT
