@<TRIPOS>MOLECULE
4KN
   31    32     1     0     0
SMALL
bcc


@<TRIPOS>ATOM
      1 CAO         0.3770   -0.8750    0.7500 ca        1 4KN     -0.156000
      2 CAQ         1.4970   -0.1870    0.3130 ca        1 4KN     -0.133000
      3 CAS         1.6100    1.1970    0.5570 ca        1 4KN      0.087900
      4 FAT         2.7070    1.8690    0.1270 f         1 4KN     -0.143900
      5 CAR         0.5930    1.8810    1.2410 ca        1 4KN     -0.133000
      6 CAP        -0.5340    1.1900    1.6820 ca        1 4KN     -0.156000
      7 CAN        -0.6410   -0.1830    1.4370 ca        1 4KN      0.113100
      8 OAM        -1.7010   -0.9760    1.8330 os        1 4KN     -0.305900
      9 CAL        -2.7810   -0.2860    2.4670 c3        1 4KN      0.036400
     10 CAJ        -3.8650   -1.3020    2.7310 c         1 4KN      0.590700
     11 OAK        -3.8450   -2.4320    2.2340 o         1 4KN     -0.508100
     12 CAC        -4.9600   -0.8790    3.6310 ca        1 4KN     -0.213600
     13 CAB        -5.7900   -1.8870    4.1520 ca        1 4KN     -0.037000
     14 CAA        -6.8450   -1.6010    5.0060 ca        1 4KN     -0.220000
     15 CAF        -7.1000   -0.2680    5.3600 ca        1 4KN      0.114100
     16 OAI        -8.1230    0.1150    6.1970 oh        1 4KN     -0.509100
     17 CAE        -6.2950    0.7630    4.8520 ca        1 4KN      0.002100
     18 OAH        -6.4810    2.0970    5.1530 oh        1 4KN     -0.515100
     19 CAD        -5.2220    0.4580    3.9860 ca        1 4KN      0.180100
     20 OAG        -4.4270    1.4550    3.4820 oh        1 4KN     -0.503100
     21 H1          0.2660   -1.9550    0.5700 ha        1 4KN      0.151500
     22 H2          2.3010   -0.7100   -0.2250 ha        1 4KN      0.149500
     23 H3          0.6900    2.9610    1.4270 ha        1 4KN      0.149500
     24 H4         -1.3230    1.7360    2.2190 ha        1 4KN      0.151500
     25 H5         -2.4300    0.1670    3.4320 h1        1 4KN      0.076700
     26 H6         -3.1810    0.5180    1.7900 h1        1 4KN      0.076700
     27 H7         -5.5860   -2.9320    3.8590 ha        1 4KN      0.167000
     28 H8         -7.4780   -2.4060    5.4030 ha        1 4KN      0.146000
     29 H9         -8.6060   -0.6820    6.4620 ho        1 4KN      0.439000
     30 H10        -7.2760    2.1680    5.7040 ho        1 4KN      0.451000
     31 H11        -4.7730    2.3110    3.7860 ho        1 4KN      0.451000
@<TRIPOS>BOND
     1    1    2 ar  
     2    1    7 ar  
     3    1   21 1   
     4    2    3 ar  
     5    2   22 1   
     6    3    4 1   
     7    3    5 ar  
     8    5    6 ar  
     9    5   23 1   
    10    6    7 ar  
    11    6   24 1   
    12    7    8 1   
    13    8    9 1   
    14    9   10 1   
    15    9   25 1   
    16    9   26 1   
    17   10   11 2   
    18   10   12 1   
    19   12   13 ar  
    20   12   19 ar  
    21   13   14 ar  
    22   13   27 1   
    23   14   15 ar  
    24   14   28 1   
    25   15   16 1   
    26   15   17 ar  
    27   16   29 1   
    28   17   18 1   
    29   17   19 ar  
    30   18   30 1   
    31   19   20 1   
    32   20   31 1   
@<TRIPOS>SUBSTRUCTURE
     1 4KN         1 TEMP              0 ****  ****    0 ROOT
