@<TRIPOS>MOLECULE
4KO
   46    48     1     0     0
SMALL
bcc


@<TRIPOS>ATOM
      1 C1           0.0000     0.0000     0.0000 c3         1 4KO       0.034600
      2 N1           1.4650     0.0000     0.0000 na         1 4KO       0.341600
      3 O1           4.0870    -3.1830     8.1490 o          1 4KO      -0.586500
      4 S1           1.7970    -0.0000     2.7680 ss         1 4KO      -0.400400
      5 C2           2.2870     0.0000     1.0760 cc         1 4KO       0.396800
      6 N2           3.5210    -0.0000     0.6190 nd         1 4KO      -0.398000
      7 O2           5.5380    -0.4290     7.3370 o          1 4KO      -0.534100
      8 S2           8.0390     0.8220     7.3280 ss         1 4KO      -0.273200
      9 C3           3.4210     0.0010     3.5660 c3         1 4KO       0.182900
     10 N3           3.5260    -0.0010    -0.6650 nd         1 4KO       0.033000
     11 O3           2.7860    -1.3040    10.2330 os         1 4KO      -0.382600
     12 S3           3.3110     1.3710     7.4480 ss         1 4KO      -0.446200
     13 C4           3.2450     0.0000     5.0630 c2         1 4KO      -0.279400
     14 N4           2.3190    -0.0070    -1.1180 nc         1 4KO      -0.430800
     15 O4           5.0020    -2.6580     4.5490 o          1 4KO      -0.844300
     16 C5           3.4250    -1.1630     5.6680 ce         1 4KO       0.005400
     17 N5           3.3290    -1.2590     7.0670 nj         1 4KO       0.046000
     18 O5           2.8250    -3.0920     4.5020 o          1 4KO      -0.844300
     19 C6           2.7220    -0.2690     7.9910 cy         1 4KO       0.069800
     20 C7           3.5430    -0.9270     9.0800 cy         1 4KO       0.120200
     21 N7          11.2130     2.0010     5.9840 n1         1 4KO      -0.373800
     22 C8           3.7220    -2.0290     8.0730 c          1 4KO       0.630500
     23 C10          6.9870     0.7190     8.8030 c3         1 4KO       0.007700
     24 C11          9.4950     1.7230     7.9270 c3         1 4KO       0.186800
     25 C12         10.4580     1.8880     6.8250 c1         1 4KO       0.218700
     26 C14          2.8900     1.3140     5.6810 c3         1 4KO       0.209900
     27 C15          3.7270    -2.3650     4.8700 c          1 4KO       0.962800
     28 H1          -0.3610     0.0220    -1.0210 h1         1 4KO       0.026700
     29 H1A         -0.3610     0.8740     0.5290 h1         1 4KO       0.026700
     30 H1B         -0.3610    -0.8950     0.4920 h1         1 4KO       0.026700
     31 H3           3.9700     0.8860     3.2670 h1         1 4KO       0.080700
     32 H3A          3.9710    -0.8830     3.2670 h1         1 4KO       0.080700
     33 H6           1.6490    -0.3740     8.1020 h2         1 4KO       0.082700
     34 HN6          4.9030     0.1730    10.3260 hn         1 4KO       0.174500
     35 H10          7.5140     0.1870     9.5850 h1         1 4KO       0.037700
     36 H10A         6.7460     1.7180     9.1440 h1         1 4KO       0.037700
     37 H11          9.9590     1.1660     8.7320 h1         1 4KO       0.037200
     38 H11A         9.1920     2.6980     8.2910 h1         1 4KO       0.037200
     39 H13          4.4280    -2.3560    10.8980 h1         1 4KO      -0.005633
     40 H13A         3.9280    -1.0030    11.9210 h1         1 4KO      -0.005633
     41 H13B         2.9790    -2.4950    11.9030 h1         1 4KO      -0.005633
     42 H14          1.8250     1.4780     5.5680 h1         1 4KO       0.043700
     43 H14A         3.4290     2.1000     5.1660 h1         1 4KO       0.043700
     44 N6           4.7780    -0.2120     9.4110 ns         1 4KO      -0.200900
     45 C9           5.7160    -0.0160     8.4630 c          1 4KO       0.586100
     46 C13          3.5780    -1.8210    11.3040 c3         1 4KO       0.243700
@<TRIPOS>BOND
     1     1     2 1   
     2     1    28 1   
     3     1    29 1   
     4     1    30 1   
     5     2     5 1   
     6     2    14 1   
     7     3    22 2   
     8     4     5 1   
     9     4     9 1   
    10     5     6 2   
    11     6    10 1   
    12     7    45 2   
    13     8    23 1   
    14     8    24 1   
    15     9    13 1   
    16     9    31 1   
    17     9    32 1   
    18    10    14 2   
    19    11    20 1   
    20    11    46 1   
    21    12    19 1   
    22    12    26 1   
    23    13    16 2   
    24    13    26 1   
    25    15    27 1   
    26    16    17 1   
    27    16    27 1   
    28    17    19 1   
    29    17    22 1   
    30    18    27 1   
    31    19    20 1   
    32    19    33 1   
    33    20    22 1   
    34    20    44 1   
    35    21    25 3   
    36    23    35 1   
    37    23    36 1   
    38    23    45 1   
    39    24    25 1   
    40    24    37 1   
    41    24    38 1   
    42    26    42 1   
    43    26    43 1   
    44    34    44 1   
    45    39    46 1   
    46    40    46 1   
    47    41    46 1   
    48    44    45 1   
@<TRIPOS>SUBSTRUCTURE
     1 4KO         1 TEMP              0 ****  ****    0 ROOT
