@<TRIPOS>MOLECULE
4KP
   81    82     1     0     0
SMALL
bcc


@<TRIPOS>ATOM
      1 C1          1.4130   -3.1510    1.3330 c2        1 4KP      0.285000
      2 C2          2.0660   -3.6120    3.5570 c1        1 4KP     -0.023000
      3 N1          1.4380   -3.4400    0.0050 n3        1 4KP     -0.334000
      4 N2          2.0920   -3.9120    2.2560 n2        1 4KP     -0.305000
      5 N3          1.3710   -2.5300    4.0890 nh        1 4KP     -0.218000
      6 C3         -0.6080   -0.2320    2.1020 c2        1 4KP     -0.273000
      7 C4          0.6470   -2.0070    1.8020 c2        1 4KP     -0.261000
      8 C5          0.6530   -1.7280    3.2310 c2        1 4KP      0.080000
      9 N4         -0.1330   -1.0650    1.1480 n2        1 4KP     -0.035000
     10 N5         -0.1460   -0.6040    3.4070 na        1 4KP     -0.155000
     11 S1         -1.5410    1.1590    1.8340 ss        1 4KP      0.478000
     12 C6         -5.3850    1.4330    1.1820 ca        1 4KP     -0.057000
     13 C7         -4.0360    1.6810    1.3930 ca        1 4KP     -0.298000
     14 C8         -3.1310    0.6230    1.6060 ca        1 4KP     -0.204000
     15 C9         -3.5840   -0.6930    1.6120 ca        1 4KP     -0.151000
     16 C10        -4.9500   -0.9540    1.4030 ca        1 4KP      0.146000
     17 C11        -5.8370    0.1150    1.1800 ca        1 4KP     -0.177000
     18 O1         -7.2050   -0.2360    1.0110 os        1 4KP     -0.035000
     19 O2         -5.3440   -2.2630    1.4260 oh        1 4KP     -0.235000
     20 C12        -8.0590    0.4610    0.3750 c1        1 4KP     -0.002000
     21 C13        -0.4290    0.0550    4.6510 c3        1 4KP     -0.035000
     22 C14        -1.2560   -0.7720    5.6370 c3        1 4KP     -0.180000
     23 C15        -1.3510   -0.0460    6.9620 c3        1 4KP     -0.159000
     24 C16        -2.1130   -0.2080    9.3350 c3        1 4KP     -0.214000
     25 C17        -0.0910   -3.0120   10.8610 c2        1 4KP     -1.647000
     26 C18        -2.0470   -0.9020    7.9990 c3        1 4KP     -0.159000
     27 C19         3.2890   -8.4830   12.7840 c2        1 4KP     -0.109000
     28 C20         3.4050   -7.4830   13.6620 c2        1 4KP     -0.177000
     29 C21         2.2250   -4.4230   12.9040 c1        1 4KP     -0.058000
     30 C22         1.8120   -4.7370   11.6340 c2        1 4KP     -1.356000
     31 C23         2.1330   -8.2790   10.4600 c1        1 4KP     -0.254000
     32 C24         2.6640   -8.3650   11.5310 c1        1 4KP     -0.095000
     33 C25         2.2440   -5.3710    6.3330 c2        1 4KP     -0.160000
     34 C26         4.5400   -3.8710    9.3920 c1        1 4KP     -0.121000
     35 C27         3.3700   -3.6200    9.4080 c1        1 4KP     -0.208000
     36 C28         1.9790   -3.3010    9.3700 c3        1 4KP     -0.717000
     37 C29         1.2170   -4.0140    8.2980 c2        1 4KP     -0.214000
     38 C30         1.7420   -4.6920    7.3150 c1        1 4KP     -0.104000
     39 P1          1.2020   -3.6550   10.7740 p3        1 4KP      3.278000
     40 C31         1.3290   -1.2570   14.7120 ca        1 4KP     -0.088500
     41 C32         1.4540   -2.6100   14.4240 ca        1 4KP     -0.217000
     42 C33         2.0630   -3.0230   13.2260 ca        1 4KP     -0.101000
     43 C34         2.5640   -2.0480   12.3360 ca        1 4KP     -0.217000
     44 C35         2.4630   -0.6920   12.6570 ca        1 4KP     -0.088500
     45 C36         1.8270   -0.2930   13.8280 ca        1 4KP     -0.156000
     46 H1          1.3910   -2.3560    5.0660 hn        1 4KP      0.252000
     47 H2          1.9560   -4.2140   -0.3340 hn        1 4KP      0.250000
     48 H3          0.9380   -2.8700   -0.6320 hn        1 4KP      0.250000
     49 H4         -6.0940    2.2610    1.0200 ha        1 4KP      0.154000
     50 H5         -2.8980   -1.5390    1.7690 ha        1 4KP      0.172000
     51 H6         -6.3070   -2.2970    1.3000 ho        1 4KP      0.245000
     52 H7         -0.9820    1.0120    4.4140 h1        1 4KP      0.114500
     53 H8          0.5560    0.3270    5.1330 h1        1 4KP      0.114500
     54 H9         -1.9130    0.9160    6.8280 hc        1 4KP      0.083000
     55 H10        -0.7860   -1.7780    5.7950 hc        1 4KP      0.094500
     56 H11        -2.2840   -0.9470    5.2250 hc        1 4KP      0.094500
     57 H12        -0.3230    0.2190    7.3270 hc        1 4KP      0.083000
     58 H13        -2.7030    0.7370    9.2610 hc        1 4KP      0.078333
     59 H14        -1.0880    0.0450    9.7000 hc        1 4KP      0.078333
     60 H15        -2.5980   -0.8730   10.0910 hc        1 4KP      0.078333
     61 H16        -0.5240   -2.2770   10.1760 ha        1 4KP      0.189000
     62 H17        -3.0840   -1.1460    7.6470 hc        1 4KP      0.081500
     63 H18        -1.4990   -1.8770    8.1100 hc        1 4KP      0.081500
     64 H20         3.0180   -6.4610   13.4820 ha        1 4KP      0.145000
     65 H21         3.9040   -7.6340   14.6290 ha        1 4KP      0.145000
     66 H22         1.9980   -5.7820   11.3260 ha        1 4KP      0.217000
     67 H23         1.6650   -8.2200    9.5120 ha        1 4KP      0.214000
     68 H24         2.4450   -6.4510    6.4080 ha        1 4KP      0.175500
     69 H25         2.4870   -4.9060    5.3530 ha        1 4KP      0.175500
     70 H26         5.5750   -4.1070    9.4190 ha        1 4KP      0.236000
     71 H27         1.9030   -2.1950    9.1150 hc        1 4KP      0.173000
     72 H28         0.1210   -3.8710    8.3710 ha        1 4KP      0.153000
     73 H29         1.7290    0.7750   14.0690 ha        1 4KP      0.131000
     74 H30         0.8420   -0.9380   15.6470 ha        1 4KP      0.128500
     75 H31         1.0820   -3.3730   15.1230 ha        1 4KP      0.137500
     76 H32         3.2040   -2.3410   11.4870 ha        1 4KP      0.137500
     77 H33         2.8910    0.0630   11.9800 ha        1 4KP      0.128500
     78 H34        -7.7890    1.4290   -0.0980 ha        1 4KP      0.041000
     79 H35        -0.8220   -3.1620   11.6650 ha        1 4KP      0.189000
     80 I1         -3.2550    3.5410    1.4150 i         1 4KP      0.183000
     81 H19         3.6900   -9.4910   13.0020 ha        1 4KP      0.125000
@<TRIPOS>BOND
     1    1    3 1   
     2    1    4 1   
     3    1    7 1   
     4    2    4 1   
     5    2    5 1   
     6    3   47 1   
     7    3   48 1   
     8    5    8 1   
     9    5   46 1   
    10    6    9 1   
    11    6   10 1   
    12    6   11 1   
    13    7    8 1   
    14    7    9 1   
    15    8   10 1   
    16   10   21 1   
    17   11   14 1   
    18   12   13 1   
    19   12   17 1   
    20   12   49 1   
    21   13   14 1   
    22   13   80 1   
    23   14   15 1   
    24   15   16 1   
    25   15   50 1   
    26   16   17 1   
    27   16   19 1   
    28   17   18 1   
    29   18   20 1   
    30   19   51 1   
    31   20   78 1   
    32   21   22 1   
    33   21   52 1   
    34   21   53 1   
    35   22   23 1   
    36   22   55 1   
    37   22   56 1   
    38   23   26 1   
    39   23   54 1   
    40   23   57 1   
    41   24   26 1   
    42   24   58 1   
    43   24   59 1   
    44   24   60 1   
    45   25   39 1   
    46   25   61 1   
    47   25   79 1   
    48   26   62 1   
    49   26   63 1   
    50   27   28 1   
    51   27   32 1   
    52   27   81 1   
    53   28   64 1   
    54   28   65 1   
    55   29   30 1   
    56   29   42 1   
    57   30   39 1   
    58   30   66 1   
    59   31   32 1   
    60   31   67 1   
    61   33   38 1   
    62   33   68 1   
    63   33   69 1   
    64   34   35 1   
    65   34   70 1   
    66   35   36 1   
    67   36   37 1   
    68   36   39 1   
    69   36   71 1   
    70   37   38 1   
    71   37   72 1   
    72   40   41 1   
    73   40   45 1   
    74   40   74 1   
    75   41   42 1   
    76   41   75 1   
    77   42   43 1   
    78   43   44 1   
    79   43   76 1   
    80   44   45 1   
    81   44   77 1   
    82   45   73 1   
@<TRIPOS>SUBSTRUCTURE
     1 4KP         1 TEMP              0 ****  ****    0 ROOT
