@<TRIPOS>MOLECULE
molecule
   81    87     1     0     0
SMALL
bcc


@<TRIPOS>ATOM
      1 C1           0.0000     0.0000     0.0000 ca         1 4KP       0.773200
      2 C2           2.0130     0.0000     1.1290 ca         1 4KP       0.700900
      3 N1          -0.7090    -0.0000    -1.1910 nv         1 4KP      -1.073500
      4 N2           1.3290     0.0000     0.0000 nb         1 4KP      -0.772000
      5 N3           1.4270     0.0120     2.3090 nb         1 4KP      -0.755000
      6 C3          -2.0500     0.0170     2.9180 cc         1 4KP       0.426700
      7 C4          -0.6700     0.0070     1.2340 ca         1 4KP      -0.150200
      8 C5           0.1030     0.0130     2.4080 ca         1 4KP       0.447800
      9 N4          -1.9730     0.0110     1.6090 nd         1 4KP      -0.577100
     10 N5          -0.7900     0.0200     3.4550 na         1 4KP      -0.231000
     11 S1          -3.5470     0.0240     3.8460 ss         1 4KP      -0.098100
     12 C6          -5.9400     1.6120     1.0290 ca         1 4KP      -0.101000
     13 C7          -5.0240     1.4690     2.0530 ca         1 4KP       0.113900
     14 C8          -4.7160     0.2050     2.5400 ca         1 4KP       0.011900
     15 C9          -5.3290    -0.9170     1.9960 ca         1 4KP      -0.049000
     16 C10         -6.2470    -0.7730     0.9700 ca         1 4KP       0.047100
     17 C11         -6.5540     0.4960     0.4840 ca         1 4KP       0.082100
     18 O1          -7.4760     0.3690    -0.5170 os         1 4KP      -0.318900
     19 O2          -6.9770    -1.6950     0.2750 os         1 4KP      -0.319900
     20 C12         -8.0330    -0.9500    -0.3600 c3         1 4KP       0.330200
     21 C13         -0.4550     0.0270     4.8800 c3         1 4KP       0.047300
     22 C14         -0.3380    -1.4130     5.3840 c3         1 4KP      -0.105400
     23 C15          0.0110    -1.4050     6.8740 c3         1 4KP      -0.081400
     24 C16          0.4780    -2.8380     8.8670 c3         1 4KP      -0.050400
     25 C17          0.5950    -4.2770     9.3720 c3         1 4KP      -0.498500
     26 C18          0.1280    -2.8450     7.3780 c3         1 4KP      -0.075400
     27 C19          1.3770    -8.2650    13.5100 ca         1 4KP      -0.104667
     28 C20          1.5470    -7.0640    14.1720 ca         1 4KP      -0.135833
     29 C21          1.4420    -5.8720    13.4810 ca         1 4KP      -0.077667
     30 C22          1.1650    -5.8810    12.1270 ca         1 4KP      -0.383667
     31 C23          0.9950    -7.0810    11.4630 ca         1 4KP      -0.077667
     32 C24          1.1010    -8.2740    12.1560 ca         1 4KP      -0.135833
     33 C25          5.5300    -4.4810    10.1330 ca         1 4KP      -0.104667
     34 C26          5.1050    -4.7830    11.4140 ca         1 4KP      -0.135833
     35 C27          3.7610    -4.7200    11.7290 ca         1 4KP      -0.077667
     36 C28          2.8410    -4.3540    10.7650 ca         1 4KP      -0.383667
     37 C29          3.2650    -4.0520     9.4850 ca         1 4KP      -0.077667
     38 C30          4.6110    -4.1100     9.1700 ca         1 4KP      -0.135833
     39 P1           1.0230    -4.2670    11.1910 p5         1 4KP       1.551800
     40 C31          1.7280    -0.2460    13.3850 ca         1 4KP      -0.104667
     41 C32          1.1470    -1.3070    14.0560 ca         1 4KP      -0.135833
     42 C33          0.9370    -2.5070    13.4010 ca         1 4KP      -0.077667
     43 C34          1.3070    -2.6450    12.0770 ca         1 4KP      -0.383667
     44 C35          1.8880    -1.5850    11.4070 ca         1 4KP      -0.077667
     45 C36          2.0930    -0.3840    12.0600 ca         1 4KP      -0.135833
     46 H1           3.0950    -0.0000     1.0840 h5         1 4KP       0.061100
     47 H2          -0.9550    -0.8670    -1.6270 hn         1 4KP       0.443300
     48 H3          -0.9490     0.8660    -1.6300 hn         1 4KP       0.443300
     49 H4          -6.1790     2.5980     0.6500 ha         1 4KP       0.159000
     50 H5          -5.1210    -1.8990     2.4030 ha         1 4KP       0.161000
     51 H6          -8.9100    -0.9180     0.2770 h2         1 4KP       0.073700
     52 H7           0.4890     0.5390     5.0260 h1         1 4KP       0.072700
     53 H8          -1.2330     0.5410     5.4310 h1         1 4KP       0.072700
     54 H9          -1.2820    -1.9240     5.2370 hc         1 4KP       0.057200
     55 H10          0.4400    -1.9260     4.8330 hc         1 4KP       0.057200
     56 H11         -0.7670    -0.8920     7.4250 hc         1 4KP       0.043700
     57 H12          0.9550    -0.8940     7.0210 hc         1 4KP       0.043700
     58 H13         -0.3000    -2.3240     9.4190 hc         1 4KP       0.049200
     59 H14          1.4220    -2.3260     9.0130 hc         1 4KP       0.049200
     60 H15          1.3730    -4.7910     8.8200 hc         1 4KP       0.066200
     61 H16         -0.3490    -4.7880     9.2250 hc         1 4KP       0.066200
     62 H17          0.9060    -3.3590     6.8260 hc         1 4KP       0.042700
     63 H18         -0.8160    -3.3560     7.2320 hc         1 4KP       0.042700
     64 H20          1.7640    -7.0580    15.2340 ha         1 4KP       0.128500
     65 H21          1.5750    -4.9300    14.0010 ha         1 4KP       0.129333
     66 H22          0.7780    -7.0880    10.4020 ha         1 4KP       0.129333
     67 H23          0.9680    -9.2150    11.6360 ha         1 4KP       0.128500
     68 H24          6.5840    -4.5290     9.8860 ha         1 4KP       0.128000
     69 H25          5.8260    -5.0720    12.1700 ha         1 4KP       0.128500
     70 H26          3.4290    -4.9570    12.7330 ha         1 4KP       0.129333
     71 H27          2.5450    -3.7630     8.7290 ha         1 4KP       0.129333
     72 H28          4.9430    -3.8730     8.1670 ha         1 4KP       0.128500
     73 H29          1.8910     0.6950    13.8970 ha         1 4KP       0.128000
     74 H30          0.8590    -1.1980    15.0940 ha         1 4KP       0.128500
     75 H31          0.4820    -3.3370    13.9260 ha         1 4KP       0.129333
     76 H32          2.1740    -1.6920    10.3680 ha         1 4KP       0.129333
     77 H33          2.5480     0.4470    11.5340 ha         1 4KP       0.128500
     78 H34         -8.2710    -1.3780    -1.3260 h2         1 4KP       0.073700
     79 H35         -0.2150    -3.6050    11.1250 hp         1 4KP      -0.412700
     80 I1          -4.0980     3.1600     2.8740 i          1 4KP      -0.129900
     81 H19          1.4600    -9.2000    14.0520 ha         1 4KP       0.128000
@<TRIPOS>BOND
     1    18    20 1   
     2    18    17 1   
     3    20    19 1   
     4    12    17 ar  
     5    12    13 ar  
     6    17    16 ar  
     7    80    13 1   
     8    19    16 1   
     9    13    14 ar  
    10    16    15 ar  
    11    14    15 ar  
    12    14    11 1   
    13    11     6 1   
    14     6     9 2   
    15     6    10 1   
    16     9     7 1   
    17    45    40 ar  
    18    45    44 ar  
    19    10    21 1   
    20    10     8 1   
    21     7     1 ar  
    22     7     8 ar  
    23     3     1 1   
    24    40    41 ar  
    25    21    22 1   
    26     1     4 ar  
    27     8     5 ar  
    28    44    43 ar  
    29    26    23 1   
    30    26    24 1   
    31    23    22 1   
    32    41    42 ar  
    33     4     2 ar  
    34    43    42 ar  
    35    43    39 1   
    36     5     2 ar  
    37    24    25 1   
    38    25    39 1   
    39    39    30 1   
    40    39    36 1   
    41    29    30 ar  
    42    29    28 ar  
    43    30    31 ar  
    44    28    27 ar  
    45    31    32 ar  
    46    27    32 ar  
    47    36    35 ar  
    48    36    37 ar  
    49    35    34 ar  
    50    37    38 ar  
    51    34    33 ar  
    52    38    33 ar  
    53     2    46 1   
    54     3    47 1   
    55     3    48 1   
    56    12    49 1   
    57    15    50 1   
    58    20    51 1   
    59    21    52 1   
    60    21    53 1   
    61    22    54 1   
    62    22    55 1   
    63    23    56 1   
    64    23    57 1   
    65    24    58 1   
    66    24    59 1   
    67    25    60 1   
    68    25    61 1   
    69    26    62 1   
    70    26    63 1   
    71    27    81 1   
    72    28    64 1   
    73    29    65 1   
    74    31    66 1   
    75    32    67 1   
    76    33    68 1   
    77    34    69 1   
    78    35    70 1   
    79    37    71 1   
    80    38    72 1   
    81    40    73 1   
    82    41    74 1   
    83    42    75 1   
    84    44    76 1   
    85    45    77 1   
    86    20    78 1   
    87    39    79 1   
@<TRIPOS>SUBSTRUCTURE
     1 4KP         1 TEMP              0 ****  ****    0 ROOT
