@<TRIPOS>MOLECULE
molecule
   60    62     1     0     0
SMALL
bcc


@<TRIPOS>ATOM
      1 C20          0.0000     0.0000     0.0000 ca         1 4KQ      -0.118000
      2 C24          0.0100     0.0110     2.4110 ca         1 4KQ      -0.118000
      3 C15         -2.8710     0.0120     2.4230 ca         1 4KQ      -0.098500
      4 C17         -2.8810    -0.0010     0.0100 ca         1 4KQ      -0.098500
      5 C21          1.3800     0.0000     0.0000 ca         1 4KQ      -0.120500
      6 C23          1.3900    -0.0000     2.3990 ca         1 4KQ      -0.120500
      7 C29         -9.0950     0.0760     0.9420 ca         1 4KQ      -0.116000
      8 C30        -10.4660     0.1010     0.7530 ca         1 4KQ      -0.089000
      9 C14         -4.2510     0.0130     2.4250 ca         1 4KQ      -0.182000
     10 C18         -4.2600    -0.0110     0.0190 ca         1 4KQ      -0.182000
     11 C19         -0.6950     0.0050     1.2080 cp         1 4KQ      -0.090000
     12 C16         -2.1780     0.0060     1.2140 cp         1 4KQ      -0.016000
     13 C2          -9.4260    -0.0150     3.3180 ca         1 4KQ      -0.116600
     14 C22          2.0740     0.0000     1.1960 ca         1 4KQ       0.013700
     15 C10         -8.5740     0.0180     2.2260 ca         1 4KQ      -0.013300
     16 C31        -11.3180     0.0680     1.8460 ca         1 4KQ      -0.223300
     17 C13         -4.9480     0.0010     1.2240 ca         1 4KQ       0.093100
     18 C1         -10.7980     0.0100     3.1280 ca         1 4KQ       0.164100
     19 C26          4.0790    -1.4300     1.4670 c          1 4KQ       0.901600
     20 C6          -7.2780    -0.1070     6.8220 c3         1 4KQ      -0.111100
     21 C7          -9.6070     0.1290     7.6780 c3         1 4KQ      -0.111100
     22 C8          -8.1240     2.1280     7.5310 c3         1 4KQ      -0.111100
     23 C25          3.5810    -0.0130     1.1910 c3         1 4KQ      -0.165100
     24 C11         -6.8470     0.3370     2.5030 c3         1 4KQ       0.207700
     25 C32        -12.7810     0.2430     1.4390 c3         1 4KQ       0.708200
     26 C5          -8.5010     0.8050     6.8700 c3         1 4KQ       0.146800
     27 O9          -9.1030    -1.1770     5.3400 o          1 4KQ      -0.501000
     28 O27          3.2610    -2.3340     1.7810 o          1 4KQ      -0.838300
     29 O36        -11.8620     0.2850     3.9950 oh         1 4KQ      -0.511100
     30 O28          5.3100    -1.6890     1.4020 o          1 4KQ      -0.838300
     31 O12         -6.3070     0.0080     1.2530 os         1 4KQ      -0.325900
     32 O4          -8.9550     1.0460     5.5710 os         1 4KQ      -0.409900
     33 F33        -13.2450     1.4360     1.9110 f          1 4KQ      -0.224633
     34 F34        -12.8810     0.2220     0.0780 f          1 4KQ      -0.224633
     35 F35        -13.5240    -0.7730     1.9650 f          1 4KQ      -0.224633
     36 H1          -0.5420    -0.0000    -0.9380 ha         1 4KQ       0.110500
     37 H2          -0.5240     0.0110     3.3530 ha         1 4KQ       0.110500
     38 H3          -2.3290     0.0080     3.3600 ha         1 4KQ       0.142000
     39 H4          -2.3460    -0.0040    -0.9310 ha         1 4KQ       0.142000
     40 H5           1.9210     0.0150    -0.9380 ha         1 4KQ       0.130500
     41 H6           1.9390     0.0340     3.3320 ha         1 4KQ       0.130500
     42 H7          -8.4300     0.0730     0.0870 ha         1 4KQ       0.167000
     43 H8         -10.8740     0.1470    -0.2500 ha         1 4KQ       0.160000
     44 H9          -4.7910     0.0180     3.3640 ha         1 4KQ       0.128500
     45 H10         -4.8080    -0.0230    -0.9160 ha         1 4KQ       0.128500
     46 H11         -6.7290    -0.0250     7.7520 hc         1 4KQ       0.048811
     47 H12         -7.5970    -1.1320     6.6800 hc         1 4KQ       0.048811
     48 H13         -6.6390     0.1900     5.9980 hc         1 4KQ       0.048811
     49 H14        -10.5610     0.5770     7.4290 hc         1 4KQ       0.048811
     50 H15         -9.6320    -0.9280     7.4430 hc         1 4KQ       0.048811
     51 H16         -9.4120     0.2600     8.7360 hc         1 4KQ       0.048811
     52 H17         -7.2990     2.5780     6.9930 hc         1 4KQ       0.048811
     53 H18         -7.8300     1.9480     8.5580 hc         1 4KQ       0.048811
     54 H19         -8.9760     2.7970     7.5120 hc         1 4KQ       0.048811
     55 H20          3.9420     0.3150     0.2240 hc         1 4KQ       0.037700
     56 H21          3.9500     0.6550     1.9600 hc         1 4KQ       0.037700
     57 H22         -6.7080     1.3810     2.7560 h1         1 4KQ       0.057700
     58 H23         -6.4910    -0.2830     3.3180 h1         1 4KQ       0.057700
     59 H24        -12.1470    -0.5150     4.4060 ho         1 4KQ       0.425000
     60 C3          -9.1600    -0.1150     4.8180 c          1 4KQ       0.655700
@<TRIPOS>BOND
     1    22    26 1   
     2    20    26 1   
     3    28    19 1   
     4    26    32 1   
     5    26    21 1   
     6    19    30 1   
     7    19    23 1   
     8     4    10 ar  
     9     4    12 ar  
    10    32    60 1   
    11    10    17 ar  
    12    24    15 1   
    13    24    31 1   
    14     2     6 ar  
    15     2    11 ar  
    16    60    13 1   
    17    60    27 2   
    18     6    14 ar  
    19    11    12 1   
    20    11     1 ar  
    21    15    13 ar  
    22    15     7 ar  
    23    12     3 ar  
    24    14    23 1   
    25    14     5 ar  
    26    13    18 ar  
    27    17    31 1   
    28    17     9 ar  
    29     1     5 ar  
    30     7     8 ar  
    31    35    25 1   
    32    18    29 1   
    33    18    16 ar  
    34     8    16 ar  
    35    16    25 1   
    36    33    25 1   
    37     3     9 ar  
    38    25    34 1   
    39     1    36 1   
    40     2    37 1   
    41     3    38 1   
    42     4    39 1   
    43     5    40 1   
    44     6    41 1   
    45     7    42 1   
    46     8    43 1   
    47     9    44 1   
    48    10    45 1   
    49    20    46 1   
    50    20    47 1   
    51    20    48 1   
    52    21    49 1   
    53    21    50 1   
    54    21    51 1   
    55    22    52 1   
    56    22    53 1   
    57    22    54 1   
    58    23    55 1   
    59    23    56 1   
    60    24    57 1   
    61    24    58 1   
    62    29    59 1   
@<TRIPOS>SUBSTRUCTURE
     1 4KQ         1 TEMP              0 ****  ****    0 ROOT
