@<TRIPOS>MOLECULE
4KQ
   60    63     1     0     0
SMALL
bcc


@<TRIPOS>ATOM
      1 C20         0.1590   -0.1320   -0.1850 ca        1 4KQ     -0.119500
      2 C24         0.1950   -0.1740    2.2290 ca        1 4KQ     -0.119500
      3 C15        -2.7400    0.3590    2.0250 ca        1 4KQ     -0.128500
      4 C17        -2.6610   -1.1080    0.1020 ca        1 4KQ     -0.128500
      5 C21         1.5470   -0.0320   -0.2000 ca        1 4KQ     -0.144500
      6 C23         1.5800   -0.0820    2.2130 ca        1 4KQ     -0.144500
      7 C29        -7.2040   -0.9650    3.3170 cx        1 4KQ     -0.156500
      8 C30        -8.5250   -1.3160    3.8120 c2        1 4KQ     -0.001200
      9 C14        -4.1260    0.2420    2.0650 ca        1 4KQ     -0.135000
     10 C18        -4.0470   -1.2370    0.1300 ca        1 4KQ     -0.135000
     11 C19        -0.5350   -0.2090    1.0290 cp        1 4KQ     -0.104000
     12 C16        -1.9900   -0.3200    1.0500 cp        1 4KQ      0.013000
     13 C2         -7.7560   -2.3940    1.2450 ce        1 4KQ     -0.236400
     14 C22         2.2790   -0.0160    0.9960 ca        1 4KQ      0.004700
     15 C10        -6.7910   -1.5140    1.9350 cx        1 4KQ      0.190000
     16 C31        -9.3310   -2.1690    3.1410 cf        1 4KQ     -0.197200
     17 C13        -4.7730   -0.5640    1.1190 ca        1 4KQ      0.050100
     18 C1         -8.9340   -2.7300    1.8540 cf        1 4KQ      0.228100
     19 C26         4.3400    1.0820    1.9800 c         1 4KQ      0.919600
     20 C6         -8.1450   -4.2280   -2.6840 c3        1 4KQ     -0.113433
     21 C7         -7.9860   -6.2860   -1.2700 c3        1 4KQ     -0.113433
     22 C8         -5.9280   -4.9420   -1.7360 c3        1 4KQ     -0.113433
     23 C25         3.7570    0.0480    0.9840 c3        1 4KQ     -0.183100
     24 C11        -6.1260   -2.0130    3.1890 cx        1 4KQ     -0.105400
     25 C32       -10.7080   -2.5450    3.6790 c3        1 4KQ      0.699100
     26 C5         -7.4300   -4.8830   -1.5130 c3        1 4KQ      0.176800
     27 O9         -6.8280   -2.2760   -1.0100 o         1 4KQ     -0.509000
     28 O27         4.1790    0.8730    3.2160 o         1 4KQ     -0.836800
     29 O36        -9.8880   -3.5630    1.3410 oh        1 4KQ     -0.494100
     30 O28         4.9790    2.0540    1.4960 o         1 4KQ     -0.836800
     31 O12        -6.1700   -0.5940    1.0710 os        1 4KQ     -0.284900
     32 O4         -7.7360   -4.1930   -0.2760 os        1 4KQ     -0.481900
     33 F33       -10.8720   -3.8820    3.9370 f         1 4KQ     -0.235633
     34 F34       -11.0320   -1.9400    4.8730 f         1 4KQ     -0.235633
     35 F35       -11.7550   -2.2180    2.8540 f         1 4KQ     -0.235633
     36 H1         -0.3980   -0.1360   -1.1330 ha        1 4KQ      0.114000
     37 H2         -0.3370   -0.2260    3.1900 ha        1 4KQ      0.114000
     38 H3         -2.2230    0.9970    2.7570 ha        1 4KQ      0.142500
     39 H4         -2.0810   -1.6350   -0.6710 ha        1 4KQ      0.142500
     40 H5          2.0770    0.0440   -1.1610 ha        1 4KQ      0.158000
     41 H6          2.1670   -0.0240    3.1510 ha        1 4KQ      0.158000
     42 H7         -6.8810    0.0630    3.5840 hc        1 4KQ      0.112700
     43 H8         -8.8610   -0.8330    4.7470 ha        1 4KQ      0.157000
     44 H9         -4.7140    0.7840    2.8190 ha        1 4KQ      0.141500
     45 H10        -4.5810   -1.8430   -0.6190 ha        1 4KQ      0.141500
     46 H11        -8.0590   -4.8830   -3.5830 hc        1 4KQ      0.051144
     47 H12        -9.2240   -4.0830   -2.4410 hc        1 4KQ      0.051144
     48 H13        -7.6910   -3.2340   -2.9140 hc        1 4KQ      0.051144
     49 H14        -7.8050   -6.9120   -2.1750 hc        1 4KQ      0.051144
     50 H15        -7.4810   -6.7520   -0.3910 hc        1 4KQ      0.051144
     51 H16        -9.0820   -6.2350   -1.0680 hc        1 4KQ      0.051144
     52 H17        -5.4220   -5.3540   -0.8300 hc        1 4KQ      0.051144
     53 H18        -5.5210   -3.9220   -1.9420 hc        1 4KQ      0.051144
     54 H19        -5.7090   -5.6030   -2.6080 hc        1 4KQ      0.051144
     55 H20         4.1320    0.2920   -0.0430 hc        1 4KQ      0.041700
     56 H21         4.1630   -0.9550    1.2790 hc        1 4KQ      0.041700
     57 H22        -6.3340   -3.0460    3.5200 hc        1 4KQ      0.099200
     58 H23        -5.0840   -1.6990    3.3960 hc        1 4KQ      0.099200
     59 H24        -9.5940   -3.9300    0.4900 ho        1 4KQ      0.456000
     60 C3         -7.3840   -2.8770   -0.0930 c         1 4KQ      0.668300
@<TRIPOS>BOND
     1    1    5 ar  
     2    1   11 ar  
     3    1   36 1   
     4    2    6 ar  
     5    2   11 ar  
     6    2   37 1   
     7    3    9 ar  
     8    3   12 ar  
     9    3   38 1   
    10    4   10 ar  
    11    4   12 ar  
    12    4   39 1   
    13    5   14 ar  
    14    5   40 1   
    15    6   14 ar  
    16    6   41 1   
    17    7    8 1   
    18    7   15 1   
    19    7   24 1   
    20    7   42 1   
    21    8   16 2   
    22    8   43 1   
    23    9   17 ar  
    24    9   44 1   
    25   10   17 ar  
    26   10   45 1   
    27   11   12 1   
    28   13   15 1   
    29   13   18 2   
    30   13   60 1   
    31   14   23 1   
    32   15   24 1   
    33   15   31 1   
    34   16   18 1   
    35   16   25 1   
    36   17   31 1   
    37   18   29 1   
    38   19   23 1   
    39   19   28 1   
    40   19   30 1   
    41   20   26 1   
    42   20   46 1   
    43   20   47 1   
    44   20   48 1   
    45   21   26 1   
    46   21   49 1   
    47   21   50 1   
    48   21   51 1   
    49   22   26 1   
    50   22   52 1   
    51   22   53 1   
    52   22   54 1   
    53   23   55 1   
    54   23   56 1   
    55   24   57 1   
    56   24   58 1   
    57   25   33 1   
    58   25   34 1   
    59   25   35 1   
    60   26   32 1   
    61   27   60 2   
    62   29   59 1   
    63   32   60 1   
@<TRIPOS>SUBSTRUCTURE
     1 4KQ         1 TEMP              0 ****  ****    0 ROOT
