@<TRIPOS>MOLECULE
4KR
   30    31     1     0     0
SMALL
bcc


@<TRIPOS>ATOM
      1 C            0.0000     0.0000     0.0000 c3         1 4KR      -0.040100
      2 C1           1.5070     0.0000     0.0000 c          1 4KR       0.688100
      3 S1           3.8680    -0.9550    -5.1130 ss         1 4KR      -0.467200
      4 C2           3.1970    -0.2110    -3.5950 c3         1 4KR       0.200900
      5 O2           2.1110     0.0000     1.0460 o          1 4KR      -0.531000
      6 C3           4.1910    -0.2240    -2.4800 c2         1 4KR      -0.309400
      7 O3           2.1790    -0.0030    -1.1620 os         1 4KR      -0.479900
      8 C4           5.5100    -0.3160    -2.5640 ce         1 4KR      -0.190600
      9 N5           6.1350    -0.4650    -3.8140 nj         1 4KR       0.057000
     10 C6           5.5340    -0.2110    -5.1490 cy         1 4KR       0.062800
     11 C7           6.6310    -1.0970    -5.7010 cy         1 4KR      -0.264500
     12 C8           7.2640    -0.9010    -4.3510 c          1 4KR       0.617500
     13 O9           8.3840    -1.0760    -3.9200 o          1 4KR      -0.497500
     14 C10          6.3270    -0.2600    -1.3380 c          1 4KR       0.951800
     15 C13          3.6240    -0.1180    -1.0880 c3         1 4KR       0.335600
     16 N14          6.2060    -2.4770    -5.9720 nz         1 4KR       0.138400
     17 H           -0.3610    -0.9430    -0.3920 hc         1 4KR       0.022367
     18 HA          -0.3610     0.1320     1.0130 hc         1 4KR       0.022367
     19 HB          -0.3610     0.8110    -0.6210 hc         1 4KR       0.022367
     20 H6           5.5390     0.8110    -5.5060 h2         1 4KR       0.102700
     21 H7           7.1960    -0.5020    -6.4080 hx         1 4KR       0.132700
     22 H13          4.1090     0.7590    -1.4990 h1         1 4KR       0.121200
     23 H13A         3.9760    -1.1390    -1.1740 h1         1 4KR       0.121200
     24 HN14         5.7640    -2.8560    -5.1570 hn         1 4KR       0.224467
     25 HN1A         5.5590    -2.4830    -6.7350 hn         1 4KR       0.224467
     26 O4           5.7300    -0.2350    -0.1310 o          1 4KR      -0.817300
     27 O5           7.5400    -0.2390    -1.4170 o          1 4KR      -0.817300
     28 H2A          2.3200    -0.7690    -3.2890 h1         1 4KR       0.072700
     29 H143         7.0050    -3.0320    -6.2070 hn         1 4KR       0.224467
     30 H2           2.9150     0.8140    -3.8020 h1         1 4KR       0.072700
@<TRIPOS>BOND
     1     1     2 1   
     2     1    17 1   
     3     1    18 1   
     4     1    19 1   
     5     2     5 2   
     6     2     7 1   
     7     3     4 1   
     8     3    10 1   
     9     4     6 1   
    10     4    28 1   
    11     4    30 1   
    12     6     8 2   
    13     6    15 1   
    14     7    15 1   
    15     8     9 1   
    16     8    14 1   
    17     9    10 1   
    18     9    12 1   
    19    10    11 1   
    20    10    20 1   
    21    11    12 1   
    22    11    16 1   
    23    11    21 1   
    24    12    13 2   
    25    14    26 1   
    26    14    27 1   
    27    15    22 1   
    28    15    23 1   
    29    16    24 1   
    30    16    25 1   
    31    16    29 1   
@<TRIPOS>SUBSTRUCTURE
     1 4KR         1 TEMP              0 ****  ****    0 ROOT
