@<TRIPOS>MOLECULE
molecule
   17    17     1     0     0
SMALL
bcc


@<TRIPOS>ATOM
      1 C4           0.0000     0.0000     0.0000 ca         1 4KS       0.064100
      2 C5           1.3870     0.0000     0.0000 ca         1 4KS      -0.114500
      3 C6           2.0780     0.0000     1.1960 ca         1 4KS      -0.178000
      4 O1          -0.6800    -0.0010    -1.1780 oh         1 4KS      -0.520100
      5 C3          -0.6940    -0.0070     1.2010 ca         1 4KS      -0.114500
      6 C2          -0.0030    -0.0060     2.3970 ca         1 4KS      -0.178000
      7 C1           1.3840    -0.0010     2.3970 ca         1 4KS       0.134100
      8 O            2.0650    -0.0000     3.5740 os         1 4KS      -0.328900
      9 C            3.4920     0.0060     3.5000 c3         1 4KS       0.128700
     10 H15          1.9290     0.0010    -0.9380 ha         1 4KS       0.142000
     11 H16          3.1610     0.0020     1.1960 ha         1 4KS       0.142000
     12 H1          -0.8400     0.8880    -1.4490 ho         1 4KS       0.414000
     13 H14         -1.7770    -0.0090     1.2010 ha         1 4KS       0.142000
     14 H13         -0.5450    -0.0090     3.3350 ha         1 4KS       0.142000
     15 H11          3.8290    -0.8780     2.9710 h1         1 4KS       0.041700
     16 H10          3.9060     0.0080     4.5010 h1         1 4KS       0.041700
     17 H12          3.8220     0.8910     2.9700 h1         1 4KS       0.041700
@<TRIPOS>BOND
     1     9     8 1   
     2     8     7 1   
     3     7     6 ar  
     4     7     3 ar  
     5     6     5 ar  
     6     3     2 ar  
     7     5     1 ar  
     8     2     1 ar  
     9     1     4 1   
    10     2    10 1   
    11     3    11 1   
    12     4    12 1   
    13     5    13 1   
    14     6    14 1   
    15     9    15 1   
    16     9    16 1   
    17     9    17 1   
@<TRIPOS>SUBSTRUCTURE
     1 4KS         1 TEMP              0 ****  ****    0 ROOT
