@<TRIPOS>MOLECULE
molecule
   55    58     1     0     0
SMALL
bcc


@<TRIPOS>ATOM
      1 C14          0.0000     0.0000     0.0000 ca         1 4KT      -0.195000
      2 C16          1.3830     0.0000     0.0000 ca         1 4KT      -0.108000
      3 C17          2.0770     0.0000     1.2010 ca         1 4KT       0.024600
      4 C22          5.5340    -1.1820     0.5910 c3         1 4KT       0.137400
      5 C21          5.5360     1.2130     0.6660 c3         1 4KT       0.137400
      6 C20          4.0050    -1.1900     0.5150 c3         1 4KT       0.126300
      7 C19          1.3790     0.0000     2.4080 ca         1 4KT       0.180100
      8 C18         -0.0050     0.0000     2.4050 ca         1 4KT      -0.224000
      9 C3          -9.1200    -0.9820     3.5560 ca         1 4KT      -0.060000
     10 C2          -6.9730     0.1140     3.3510 ca         1 4KT      -0.053000
     11 C4          -6.3470    -1.1260     3.3720 cp         1 4KT      -0.063000
     12 C5          -8.4960    -2.2090     3.5830 ca         1 4KT      -0.196000
     13 C11         -2.7580    -2.0190     4.0670 ca         1 4KT       0.458200
     14 C9          -2.7980    -0.6510     2.2030 ca         1 4KT       0.693200
     15 C8          -4.8690    -1.2140     3.2700 cp         1 4KT       0.044000
     16 C24          1.2790     0.0000     4.7840 c3         1 4KT       0.122700
     17 C6          -7.1130    -2.2920     3.4930 ca         1 4KT       0.155100
     18 C1          -8.3630     0.1890     3.4370 ca         1 4KT      -0.048000
     19 C7          -4.1810    -0.5410     2.2610 ca         1 4KT      -0.301300
     20 N1          -2.1380    -1.3760     3.0950 nb         1 4KT      -0.747000
     21 C10         -4.1290    -1.9640     4.1920 ca         1 4KT      -0.276300
     22 C12         -9.0230     1.4590     3.3900 cg         1 4KT       0.239800
     23 O1          -6.4820    -3.5360     3.5840 os         1 4KT      -0.317900
     24 C13         -7.1920    -4.4780     4.3430 c3         1 4KT       0.119700
     25 C15         -0.6960     0.0010     1.2000 ca         1 4KT       0.193600
     26 O2           2.0580    -0.0000     3.5860 os         1 4KT      -0.304900
     27 N2           3.4780    -0.0010     1.2020 nh         1 4KT      -0.582000
     28 O3           6.0270     0.0340     0.0210 os         1 4KT      -0.426600
     29 C23          4.0060     1.2280     0.5920 c3         1 4KT       0.126300
     30 N3          -2.0970     0.0070     1.1970 nu         1 4KT      -0.774300
     31 N4          -9.5320     2.4730     3.3400 n1         1 4KT      -0.358800
     32 H1          -0.5420    -0.0000    -0.9380 ha         1 4KT       0.132000
     33 H2           1.9240    -0.0010    -0.9380 ha         1 4KT       0.139000
     34 H3           5.9190    -1.9940    -0.0140 h1         1 4KT       0.051950
     35 H4           5.8350    -1.3310     1.6210 h1         1 4KT       0.051950
     36 H5           5.8630     2.0800     0.1050 h1         1 4KT       0.051950
     37 H6           5.9450     1.2600     1.6680 h1         1 4KT       0.051950
     38 H7           3.6320    -2.0550     1.0510 h1         1 4KT       0.045200
     39 H8           3.7060    -1.2580    -0.5240 h1         1 4KT       0.045200
     40 H9          -0.5480     0.0000     3.3430 ha         1 4KT       0.165000
     41 H11         -6.4850     0.9590     2.8820 ha         1 4KT       0.153000
     42 H12         -9.0840    -3.1140     3.6750 ha         1 4KT       0.148000
     43 H13         -2.1880    -2.6020     4.7800 h4         1 4KT       0.024100
     44 H14          0.7290    -0.9300     4.8580 h1         1 4KT       0.041033
     45 H15          0.5820     0.8300     4.7610 h1         1 4KT       0.041033
     46 H16          1.9340     0.1020     5.6410 h1         1 4KT       0.041033
     47 H17         -4.7080     0.0550     1.5260 ha         1 4KT       0.138000
     48 H18         -4.6220    -2.4970     4.9960 ha         1 4KT       0.144000
     49 H19         -6.5430    -5.3130     4.5800 h1         1 4KT       0.041367
     50 H20         -8.0440    -4.8310     3.7750 h1         1 4KT       0.041367
     51 H21         -7.5360    -4.0160     5.2610 h1         1 4KT       0.041367
     52 H22          3.7070     1.3590    -0.4410 h1         1 4KT       0.045200
     53 H23          3.6350     2.0590     1.1790 h1         1 4KT       0.045200
     54 H24         -2.5800     0.6150     0.5670 hn         1 4KT       0.454800
     55 H10        -10.1990    -0.9210     3.6270 ha         1 4KT       0.146000
@<TRIPOS>BOND
     1    24    23 1   
     2    28     5 1   
     3    28     4 1   
     4    12     9 ar  
     5    12    17 ar  
     6     9    18 ar  
     7     5    29 1   
     8     4     6 1   
     9    23    17 1   
    10    17    11 ar  
    11    29    27 1   
    12    18    22 1   
    13    18    10 ar  
    14     6    27 1   
    15    27     3 1   
    16    22    31 3   
    17     2     3 ar  
    18     2     1 ar  
    19    11    10 ar  
    20    11    15 1   
    21     3     7 ar  
    22     1    25 ar  
    23    15    19 ar  
    24    15    21 ar  
    25    19    14 ar  
    26     7    26 1   
    27     7     8 ar  
    28    25     8 ar  
    29    25    30 1   
    30    26    16 1   
    31    21    13 ar  
    32    14    30 1   
    33    14    20 ar  
    34    13    20 ar  
    35     1    32 1   
    36     2    33 1   
    37     4    34 1   
    38     4    35 1   
    39     5    36 1   
    40     5    37 1   
    41     6    38 1   
    42     6    39 1   
    43     8    40 1   
    44     9    55 1   
    45    10    41 1   
    46    12    42 1   
    47    13    43 1   
    48    16    44 1   
    49    16    45 1   
    50    16    46 1   
    51    19    47 1   
    52    21    48 1   
    53    24    49 1   
    54    24    50 1   
    55    24    51 1   
    56    29    52 1   
    57    29    53 1   
    58    30    54 1   
@<TRIPOS>SUBSTRUCTURE
     1 4KT         1 TEMP              0 ****  ****    0 ROOT
