@<TRIPOS>MOLECULE
4KT
   55    58     1     0     0
SMALL
bcc


@<TRIPOS>ATOM
      1 C14          0.0000     0.0000     0.0000 ca         1 4KT      -0.170000
      2 C16          1.3830     0.0000     0.0000 ca         1 4KT      -0.076000
      3 C17          2.0770     0.0000     1.2010 ca         1 4KT      -0.055400
      4 C22          5.5340    -1.1820     0.5910 c3         1 4KT       0.213400
      5 C21          5.5360     1.2130     0.6660 c3         1 4KT       0.213400
      6 C20          4.0050    -1.1900     0.5150 c3         1 4KT       0.102800
      7 C19          1.3790     0.0000     2.4080 ca         1 4KT       0.194100
      8 C18         -0.0050     0.0000     2.4050 ca         1 4KT      -0.225000
      9 C3          -9.1200    -0.9820     3.5560 ca         1 4KT      -0.037000
     10 C2          -6.9730     0.1140     3.3510 ca         1 4KT      -0.036000
     11 C4          -6.3470    -1.1260     3.3720 cp         1 4KT      -0.062000
     12 C5          -8.4960    -2.2090     3.5830 ca         1 4KT      -0.179000
     13 C11         -2.7580    -2.0190     4.0670 ca         1 4KT       0.447200
     14 C9          -2.7980    -0.6510     2.2030 ca         1 4KT       0.501200
     15 C8          -4.8690    -1.2140     3.2700 cp         1 4KT       0.053000
     16 C24          1.2790     0.0000     4.7840 c3         1 4KT       0.233700
     17 C6          -7.1130    -2.2920     3.4930 ca         1 4KT       0.161100
     18 C1          -8.3630     0.1890     3.4370 ca         1 4KT      -0.005000
     19 C7          -4.1810    -0.5410     2.2610 ca         1 4KT      -0.285300
     20 N1          -2.1380    -1.3760     3.0950 nb         1 4KT      -0.638000
     21 C10         -4.1290    -1.9640     4.1920 ca         1 4KT      -0.258300
     22 C12         -9.0230     1.4590     3.3900 cg         1 4KT       0.231800
     23 O1          -6.4820    -3.5360     3.5840 os         1 4KT      -0.300900
     24 C13         -7.1920    -4.4780     4.3430 c3         1 4KT       0.238700
     25 C15         -0.6960     0.0010     1.2000 ca         1 4KT       0.048600
     26 O2           2.0580    -0.0000     3.5860 os         1 4KT      -0.284900
     27 N2           3.4780    -0.0010     1.2020 nh         1 4KT      -0.369000
     28 O3           6.0270     0.0340     0.0210 os         1 4KT      -0.413600
     29 C23          4.0060     1.2280     0.5920 c3         1 4KT       0.102800
     30 N3          -2.0970     0.0070     1.1970 nu         1 4KT      -0.320300
     31 N4          -9.5320     2.4730     3.3400 n1         1 4KT      -0.378800
     32 H1          -0.5420    -0.0000    -0.9380 ha         1 4KT       0.108000
     33 H2           1.9240    -0.0010    -0.9380 ha         1 4KT       0.112000
     34 H3           5.9190    -1.9940    -0.0140 h1         1 4KT       0.010700
     35 H4           5.8350    -1.3310     1.6210 h1         1 4KT       0.010700
     36 H5           5.8630     2.0800     0.1050 h1         1 4KT       0.010700
     37 H6           5.9450     1.2600     1.6680 h1         1 4KT       0.010700
     38 H7           3.6320    -2.0550     1.0510 h1         1 4KT       0.019450
     39 H8           3.7060    -1.2580    -0.5240 h1         1 4KT       0.019450
     40 H9          -0.5480     0.0000     3.3430 ha         1 4KT       0.154000
     41 H11         -6.4850     0.9590     2.8820 ha         1 4KT       0.121000
     42 H12         -9.0840    -3.1140     3.6750 ha         1 4KT       0.127000
     43 H13         -2.1880    -2.6020     4.7800 h4         1 4KT      -0.021900
     44 H14          0.7290    -0.9300     4.8580 h1         1 4KT      -0.001300
     45 H15          0.5820     0.8300     4.7610 h1         1 4KT      -0.001300
     46 H16          1.9340     0.1020     5.6410 h1         1 4KT      -0.001300
     47 H17         -4.7080     0.0550     1.5260 ha         1 4KT       0.120000
     48 H18         -4.6220    -2.4970     4.9960 ha         1 4KT       0.123000
     49 H19         -6.5430    -5.3130     4.5800 h1         1 4KT      -0.002300
     50 H20         -8.0440    -4.8310     3.7750 h1         1 4KT      -0.002300
     51 H21         -7.5360    -4.0160     5.2610 h1         1 4KT      -0.002300
     52 H22          3.7070     1.3590    -0.4410 h1         1 4KT       0.019450
     53 H23          3.6350     2.0590     1.1790 h1         1 4KT       0.019450
     54 H24         -2.5800     0.6150     0.5670 hn         1 4KT       0.286800
     55 H10        -10.1990    -0.9210     3.6270 ha         1 4KT       0.114000
@<TRIPOS>BOND
     1     1     2 ar  
     2     1    25 ar  
     3     1    32 1   
     4     2     3 ar  
     5     2    33 1   
     6     3     7 ar  
     7     3    27 1   
     8     4     6 1   
     9     4    28 1   
    10     4    34 1   
    11     4    35 1   
    12     5    28 1   
    13     5    29 1   
    14     5    36 1   
    15     5    37 1   
    16     6    27 1   
    17     6    38 1   
    18     6    39 1   
    19     7     8 ar  
    20     7    26 1   
    21     8    25 ar  
    22     8    40 1   
    23     9    12 ar  
    24     9    18 ar  
    25     9    55 1   
    26    10    11 ar  
    27    10    18 ar  
    28    10    41 1   
    29    11    15 1   
    30    11    17 ar  
    31    12    17 ar  
    32    12    42 1   
    33    13    20 ar  
    34    13    21 ar  
    35    13    43 1   
    36    14    19 ar  
    37    14    20 ar  
    38    14    30 1   
    39    15    19 ar  
    40    15    21 ar  
    41    16    26 1   
    42    16    44 1   
    43    16    45 1   
    44    16    46 1   
    45    17    23 1   
    46    18    22 1   
    47    19    47 1   
    48    21    48 1   
    49    22    31 3   
    50    23    24 1   
    51    24    49 1   
    52    24    50 1   
    53    24    51 1   
    54    25    30 1   
    55    27    29 1   
    56    29    52 1   
    57    29    53 1   
    58    30    54 1   
@<TRIPOS>SUBSTRUCTURE
     1 4KT         1 TEMP              0 ****  ****    0 ROOT
