@<TRIPOS>MOLECULE
4KU
   46    47     1     0     0
SMALL
bcc


@<TRIPOS>ATOM
      1 OAE          0.0000     0.0000     0.0000 o          1 4KU      -0.665700
      2 SBA          1.5220     0.0000     0.0000 s6         1 4KU       1.037600
      3 OAA          1.9230     0.0000     1.3630 o          1 4KU      -0.665700
      4 OAB          1.9230    -0.9980    -0.9280 o          1 4KU      -0.665700
      5 CAY          2.0430     1.5430    -0.6720 ca         1 4KU      -0.067500
      6 CAO          1.1600     2.3090    -1.4080 ca         1 4KU      -0.056000
      7 CAU          1.5710     3.5250    -1.9380 ca         1 4KU      -0.044400
      8 NAS          0.6820     4.3020    -2.6830 nu         1 4KU      -0.370600
      9 CAI          1.1180     5.5840    -3.2400 c3         1 4KU       0.303400
     10 SAG          1.6640     5.3440    -4.9530 sh         1 4KU      -0.484900
     11 CAK          2.8720     3.9670    -1.7250 ca         1 4KU      -0.151500
     12 CAM          3.7500     3.1960    -0.9880 ca         1 4KU      -0.118500
     13 CAW          3.3340     1.9890    -0.4580 ca         1 4KU      -0.011300
     14 CAQ          4.2930     1.1540     0.3510 c3         1 4KU      -0.021100
     15 CAR          5.6700     1.8200     0.3570 c3         1 4KU      -0.021100
     16 CAX          6.6430     0.9550     1.1170 ca         1 4KU      -0.011300
     17 CAN          6.1990    -0.1900     1.7510 ca         1 4KU      -0.118500
     18 CAL          7.0890    -0.9830     2.4490 ca         1 4KU      -0.151500
     19 CAV          8.4310    -0.6320     2.5100 ca         1 4KU      -0.044400
     20 NAT          9.3330    -1.4330     3.2140 nu         1 4KU      -0.370600
     21 CAJ          8.8640    -2.6460     3.8870 c3         1 4KU       0.303400
     22 SAH          9.1100    -4.0760     2.7990 sh         1 4KU      -0.484900
     23 CAP          8.8740     0.5190     1.8700 ca         1 4KU      -0.056000
     24 CAZ          7.9810     1.3060     1.1710 ca         1 4KU      -0.067500
     25 SBB          8.5430     2.7620     0.3530 s6         1 4KU       1.037600
     26 OAF          8.7700     2.3980    -1.0020 o          1 4KU      -0.665700
     27 OAD          7.6600     3.8060     0.7400 o          1 4KU      -0.665700
     28 OAC          9.9040     3.1100     0.9390 o          1 4KU      -0.665700
     29 H1           0.1560     1.9480    -1.5950 ha         1 4KU       0.124000
     30 H2          -0.2580     3.9890    -2.8240 hn         1 4KU       0.285800
     31 H3           1.9400     5.9730    -2.6500 h2         1 4KU       0.033450
     32 H4           0.2940     6.2870    -3.2180 h2         1 4KU       0.033450
     33 H5           1.4250     6.4470    -5.6530 hs         1 4KU       0.152800
     34 H6           3.1980     4.9140    -2.1380 ha         1 4KU       0.100000
     35 H7           4.7630     3.5410    -0.8200 ha         1 4KU       0.138000
     36 H8           4.3710     0.1670    -0.0880 hc         1 4KU       0.056700
     37 H9           3.9290     1.0690     1.3680 hc         1 4KU       0.056700
     38 H10          5.6010     2.7900     0.8340 hc         1 4KU       0.056700
     39 H11          6.0160     1.9430    -0.6620 hc         1 4KU       0.056700
     40 H12          5.1520    -0.4640     1.7040 ha         1 4KU       0.138000
     41 H13          6.7400    -1.8800     2.9460 ha         1 4KU       0.100000
     42 H14         10.2990    -1.1770     3.2610 hn         1 4KU       0.285800
     43 H15          9.4240    -2.7900     4.8040 h2         1 4KU       0.033450
     44 H16          7.8110    -2.5460     4.1200 h2         1 4KU       0.033450
     45 H17          9.3390    -5.1580     3.5330 hs         1 4KU       0.152800
     46 H18          9.9210     0.7950     1.9140 ha         1 4KU       0.124000
@<TRIPOS>BOND
     1     1     2 1   
     2     2     3 1   
     3     2     4 1   
     4     2     5 1   
     5     5     6 ar  
     6     5    13 ar  
     7     6     7 ar  
     8     6    29 1   
     9     7     8 1   
    10     7    11 ar  
    11     8     9 1   
    12     8    30 1   
    13     9    10 1   
    14     9    31 1   
    15     9    32 1   
    16    10    33 1   
    17    11    12 ar  
    18    11    34 1   
    19    12    13 ar  
    20    12    35 1   
    21    13    14 1   
    22    14    15 1   
    23    14    36 1   
    24    14    37 1   
    25    15    16 1   
    26    15    38 1   
    27    15    39 1   
    28    16    17 ar  
    29    16    24 ar  
    30    17    18 ar  
    31    17    40 1   
    32    18    19 ar  
    33    18    41 1   
    34    19    20 1   
    35    19    23 ar  
    36    20    21 1   
    37    20    42 1   
    38    21    22 1   
    39    21    43 1   
    40    21    44 1   
    41    22    45 1   
    42    23    24 ar  
    43    23    46 1   
    44    24    25 1   
    45    25    26 1   
    46    25    27 1   
    47    25    28 1   
@<TRIPOS>SUBSTRUCTURE
     1 4KU         1 TEMP              0 ****  ****    0 ROOT
