@<TRIPOS>MOLECULE
molecule
   46    47     1     0     0
SMALL
bcc


@<TRIPOS>ATOM
      1 OAE          0.0000     0.0000     0.0000 o          1 4KU      -0.718367
      2 SBA          1.5220     0.0000     0.0000 s6         1 4KU       1.337100
      3 OAA          1.9230     0.0000     1.3630 o          1 4KU      -0.718367
      4 OAB          1.9230    -0.9980    -0.9280 o          1 4KU      -0.718367
      5 CAY          2.0430     1.5430    -0.6720 ca         1 4KU      -0.225000
      6 CAO          1.1600     2.3090    -1.4080 ca         1 4KU      -0.090000
      7 CAU          1.5710     3.5250    -1.9380 ca         1 4KU       0.119600
      8 NAS          0.6820     4.3020    -2.6830 nu         1 4KU      -0.793600
      9 CAI          1.1180     5.5840    -3.2400 c3         1 4KU       0.379900
     10 SAG          1.6640     5.3440    -4.9530 sh         1 4KU      -0.494900
     11 CAK          2.8720     3.9670    -1.7250 ca         1 4KU      -0.172000
     12 CAM          3.7500     3.1960    -0.9880 ca         1 4KU      -0.120000
     13 CAW          3.3340     1.9890    -0.4580 ca         1 4KU      -0.024300
     14 CAQ          4.2930     1.1540     0.3510 c3         1 4KU      -0.062100
     15 CAR          5.6700     1.8200     0.3570 c3         1 4KU      -0.062100
     16 CAX          6.6430     0.9550     1.1170 ca         1 4KU      -0.024300
     17 CAN          6.1990    -0.1900     1.7510 ca         1 4KU      -0.120000
     18 CAL          7.0890    -0.9830     2.4490 ca         1 4KU      -0.172000
     19 CAV          8.4310    -0.6320     2.5100 ca         1 4KU       0.119600
     20 NAT          9.3330    -1.4330     3.2140 nu         1 4KU      -0.793600
     21 CAJ          8.8640    -2.6460     3.8870 c3         1 4KU       0.379900
     22 SAH          9.1100    -4.0760     2.7990 sh         1 4KU      -0.494900
     23 CAP          8.8740     0.5190     1.8700 ca         1 4KU      -0.090000
     24 CAZ          7.9810     1.3060     1.1710 ca         1 4KU      -0.225000
     25 SBB          8.5430     2.7620     0.3530 s6         1 4KU       1.337100
     26 OAF          8.7700     2.3980    -1.0020 o          1 4KU      -0.718367
     27 OAD          7.6600     3.8060     0.7400 o          1 4KU      -0.718367
     28 OAC          9.9040     3.1100     0.9390 o          1 4KU      -0.718367
     29 H1           0.1560     1.9480    -1.5950 ha         1 4KU       0.145000
     30 H2          -0.2580     3.9890    -2.8240 hn         1 4KU       0.437800
     31 H3           1.9400     5.9730    -2.6500 h2         1 4KU       0.054700
     32 H4           0.2940     6.2870    -3.2180 h2         1 4KU       0.054700
     33 H5           1.4250     6.4470    -5.6530 hs         1 4KU       0.187800
     34 H6           3.1980     4.9140    -2.1380 ha         1 4KU       0.113000
     35 H7           4.7630     3.5410    -0.8200 ha         1 4KU       0.152000
     36 H8           4.3710     0.1670    -0.0880 hc         1 4KU       0.077450
     37 H9           3.9290     1.0690     1.3680 hc         1 4KU       0.077450
     38 H10          5.6010     2.7900     0.8340 hc         1 4KU       0.077450
     39 H11          6.0160     1.9430    -0.6620 hc         1 4KU       0.077450
     40 H12          5.1520    -0.4640     1.7040 ha         1 4KU       0.152000
     41 H13          6.7400    -1.8800     2.9460 ha         1 4KU       0.113000
     42 H14         10.2990    -1.1770     3.2610 hn         1 4KU       0.437800
     43 H15          9.4240    -2.7900     4.8040 h2         1 4KU       0.054700
     44 H16          7.8110    -2.5460     4.1200 h2         1 4KU       0.054700
     45 H17          9.3390    -5.1580     3.5330 hs         1 4KU       0.187800
     46 H18          9.9210     0.7950     1.9140 ha         1 4KU       0.145000
@<TRIPOS>BOND
     1     3     2 1   
     2     8     9 1   
     3     8     7 1   
     4     9    10 1   
     5     6     7 ar  
     6     6     5 ar  
     7     7    11 ar  
     8     2     4 1   
     9     2     5 1   
    10     2     1 1   
    11     5    13 ar  
    12    11    12 ar  
    13    13    12 ar  
    14    13    14 1   
    15    14    15 1   
    16    15    16 1   
    17    27    25 1   
    18    16    17 ar  
    19    16    24 ar  
    20    17    18 ar  
    21    25    24 1   
    22    25    26 1   
    23    25    28 1   
    24    24    23 ar  
    25    18    19 ar  
    26    23    19 ar  
    27    19    20 1   
    28    20    21 1   
    29    22    21 1   
    30     6    29 1   
    31     8    30 1   
    32     9    31 1   
    33     9    32 1   
    34    10    33 1   
    35    11    34 1   
    36    12    35 1   
    37    14    36 1   
    38    14    37 1   
    39    15    38 1   
    40    15    39 1   
    41    17    40 1   
    42    18    41 1   
    43    20    42 1   
    44    21    43 1   
    45    21    44 1   
    46    22    45 1   
    47    23    46 1   
@<TRIPOS>SUBSTRUCTURE
     1 4KU         1 TEMP              0 ****  ****    0 ROOT
