@<TRIPOS>MOLECULE
molecule
   54    59     1     0     0
SMALL
bcc


@<TRIPOS>ATOM
      1 CAN          0.0000     0.0000     0.0000 c3         1 4L1       0.164800
      2 CAL          1.5310     0.0000     0.0000 c3         1 4L1       0.160300
      3 NBD          2.0180     0.0000     1.3870 n3         1 4L1      -0.734600
      4 CAA          3.4840     0.0760     1.4300 c3         1 4L1       0.153100
      5 CAM          1.5300    -1.1810     2.1140 c3         1 4L1       0.160300
      6 CAO         -0.0000    -1.1800     2.1130 c3         1 4L1       0.164800
      7 NBE         -0.4870    -1.1810     0.7270 nh         1 4L1      -0.597000
      8 CAV         -1.8840    -1.2540     0.6850 ca         1 4L1       0.089600
      9 CAK         -2.5370    -2.2940     1.3180 ca         1 4L1      -0.104000
     10 CAG         -2.6090    -0.2720     0.0110 ca         1 4L1      -0.161000
     11 CAI         -3.9850    -0.3310    -0.0360 ca         1 4L1      -0.107000
     12 CBC         -4.6560    -1.3730     0.5900 ca         1 4L1      -0.111200
     13 NAS         -5.9920    -1.7090     0.7220 na         1 4L1      -0.264300
     14 CBA         -3.9340    -2.3610     1.2810 ca         1 4L1       0.119400
     15 NAQ         -4.8350    -3.2400     1.7840 nc         1 4L1      -0.603100
     16 CAX         -6.0480    -2.8620     1.4570 cd         1 4L1       0.487400
     17 CAU         -7.2890    -3.5730     1.8300 ca         1 4L1      -0.130900
     18 CAJ         -7.2190    -4.7380     2.5850 ca         1 4L1      -0.014000
     19 CAF         -8.5310    -3.0680     1.4260 ca         1 4L1      -0.105000
     20 CAH         -9.6850    -3.7150     1.7640 ca         1 4L1      -0.127000
     21 CBB         -9.6360    -4.8840     2.5140 ca         1 4L1      -0.082200
     22 NAT        -10.5970    -5.7440     3.0020 na         1 4L1      -0.238300
     23 CAZ         -8.3970    -5.4030     2.9340 ca         1 4L1       0.086400
     24 NAR         -8.6530    -6.5330     3.6370 nd         1 4L1      -0.588100
     25 CAY         -9.9460    -6.7360     3.6850 cc         1 4L1       0.369800
     26 CAW        -10.6040    -7.8710     4.3700 ca         1 4L1       0.415000
     27 NAP        -11.9280    -7.9760     4.3480 nb         1 4L1      -0.702000
     28 CAD        -12.5510    -8.9700     4.9440 ca         1 4L1       0.422200
     29 CAB        -11.8450    -9.9480     5.6210 ca         1 4L1      -0.243300
     30 CAC        -10.4610    -9.8770     5.6700 ca         1 4L1      -0.096000
     31 CAE         -9.8300    -8.8240     5.0290 ca         1 4L1      -0.198300
     32 HAN2        -0.3600     0.8970     0.4880 h1         1 4L1       0.049700
     33 HAN1        -0.3600    -0.0320    -1.0210 h1         1 4L1       0.049700
     34 HAL2         1.8910    -0.8860    -0.5080 h1         1 4L1       0.042450
     35 HAL1         1.8910     0.8860    -0.5080 h1         1 4L1       0.042450
     36 HAA2         3.9050    -0.7950     0.9430 h1         1 4L1       0.032367
     37 HAA3         3.8140     0.1090     2.4610 h1         1 4L1       0.032367
     38 HAA1         3.8130     0.9720     0.9170 h1         1 4L1       0.032367
     39 HAM2         1.8900    -2.0780     1.6250 h1         1 4L1       0.042450
     40 HAM1         1.8900    -1.1500     3.1350 h1         1 4L1       0.042450
     41 HAO2        -0.3600    -2.0660     2.6220 h1         1 4L1       0.049700
     42 HAO1        -0.3600    -0.2930     2.6210 h1         1 4L1       0.049700
     43 HAK1        -1.9670    -3.1070     1.7520 ha         1 4L1       0.151000
     44 HAG1        -2.0880     0.5400    -0.4810 ha         1 4L1       0.140000
     45 HAI1        -4.5420     0.4350    -0.5610 ha         1 4L1       0.125000
     46 H2          -6.7720    -1.2060     0.3460 hn         1 4L1       0.301700
     47 HAJ1        -6.2730    -5.0540     3.0090 ha         1 4L1       0.173000
     48 HAF1        -8.5770    -2.1580     0.8400 ha         1 4L1       0.125000
     49 HAH1       -10.6410    -3.3170     1.4460 ha         1 4L1       0.131000
     50 H4         -11.5870    -5.6570     2.8810 hn         1 4L1       0.320700
     51 HAD1       -13.6330    -9.0230     4.9040 h4         1 4L1       0.026100
     52 HAB1       -12.3680   -10.7610     6.1110 ha         1 4L1       0.142000
     53 HAC1        -9.8850   -10.6310     6.1920 ha         1 4L1       0.145000
     54 HAE1        -8.7500    -8.7370     5.0480 ha         1 4L1       0.169000
@<TRIPOS>BOND
     1    29    30 ar
     2    29    28 ar
     3    30    31 ar
     4    28    27 ar
     5    31    26 ar
     6    27    26 ar
     7    26    25 1
     8    25    22 1
     9    25    24 2
    10    22    21 1
    11    24    23 1
    12    21    23 ar
    13    21    20 ar
    14    23    18 ar
    15    20    19 ar
    16    18    17 ar
    17    19    17 ar
    18    17    16 1
    19    16    15 2
    20    16    13 1
    21    15    14 1
    22    13    12 1
    23    14    12 ar
    24    14     9 ar
    25    12    11 ar
    26     9     8 ar
    27    11    10 ar
    28     8    10 ar
    29     8     7 1
    30     1     7 1
    31     1     2 1
    32     7     6 1
    33     2     3 1
    34     6     5 1
    35     3     5 1
    36     3     4 1
    37     1    32 1
    38     1    33 1
    39     2    34 1
    40     2    35 1
    41     4    36 1
    42     4    37 1
    43     4    38 1
    44     5    39 1
    45     5    40 1
    46     6    41 1
    47     6    42 1
    48     9    43 1
    49    10    44 1
    50    11    45 1
    51    13    46 1
    52    18    47 1
    53    19    48 1
    54    20    49 1
    55    22    50 1
    56    28    51 1
    57    29    52 1
    58    30    53 1
    59    31    54 1
@<TRIPOS>SUBSTRUCTURE
     1 4L1         1 TEMP              0 ****  ****    0 ROOT
