@<TRIPOS>MOLECULE
molecule
   38    40     1     0     0
SMALL
bcc


@<TRIPOS>ATOM
      1 OAC          0.0000     0.0000     0.0000 o          1 4L2      -0.636500
      2 CAM          1.2140     0.0000     0.0000 c          1 4L2       0.700500
      3 CAK          1.9250     0.0000     1.3230 c3         1 4L2      -0.145400
      4 CAI          3.3800    -0.4340     1.1310 c3         1 4L2      -0.088400
      5 CAJ          3.9790     0.3760    -0.0250 c3         1 4L2      -0.099400
      6 CAL          3.2930    -0.0450    -1.3250 c3         1 4L2       0.111000
      7 NAS          1.8440    -0.0040    -1.1760 n          1 4L2      -0.404000
      8 CAO          1.0680     0.0430    -2.3350 ca         1 4L2       0.102600
      9 CAH          0.7160     1.2680    -2.8770 ca         1 4L2      -0.176000
     10 CAR         -0.0550     1.3140    -4.0310 ca         1 4L2       0.099600
     11 NAT         -0.4190     2.5200    -4.5920 n          1 4L2      -0.336000
     12 CAB          0.0150     3.7700    -3.9630 c3         1 4L2       0.078300
     13 CAP         -1.1660     2.5650    -5.7080 c          1 4L2       0.698700
     14 OAD         -1.4700     3.6490    -6.1770 o          1 4L2      -0.652500
     15 CAG         -1.6090     1.3910    -6.3500 cc         1 4L2      -0.242200
     16 CAN         -1.2850     0.1720    -5.8470 cd         1 4L2       0.007600
     17 CAA         -1.7530    -1.0890    -6.5260 c3         1 4L2      -0.058900
     18 CAQ         -0.4720     0.1110    -4.6340 ca         1 4L2      -0.124800
     19 CAF         -0.1080    -1.1180    -4.0700 ca         1 4L2      -0.069000
     20 CAE          0.6570    -1.1450    -2.9400 ca         1 4L2      -0.154000
     21 H1           1.4310    -0.6900     1.9950 hc         1 4L2       0.077200
     22 H2           1.9010     0.9980     1.7420 hc         1 4L2       0.077200
     23 H3           3.9390    -0.2410     2.0390 hc         1 4L2       0.051700
     24 H4           3.4150    -1.4900     0.8920 hc         1 4L2       0.051700
     25 H5           3.8130     1.4320     0.1480 hc         1 4L2       0.055700
     26 H6           5.0420     0.1750    -0.0950 hc         1 4L2       0.055700
     27 H7           3.5960    -1.0540    -1.5780 h1         1 4L2       0.048200
     28 H8           3.5880     0.6320    -2.1180 h1         1 4L2       0.048200
     29 H9           0.9540     2.1830    -2.3470 ha         1 4L2       0.148000
     30 H10         -0.4140     3.8430    -2.9710 h1         1 4L2       0.057700
     31 H11          1.0960     3.7820    -3.8910 h1         1 4L2       0.057700
     32 H12         -0.3160     4.6100    -4.5620 h1         1 4L2       0.057700
     33 H13         -2.2110     1.4610    -7.2490 ha         1 4L2       0.165000
     34 H14         -2.3620    -1.6640    -5.8390 hc         1 4L2       0.052367
     35 H15         -2.3380    -0.8330    -7.4010 hc         1 4L2       0.052367
     36 H16         -0.8940    -1.6780    -6.8260 hc         1 4L2       0.052367
     37 H17         -0.4230    -2.0440    -4.5350 ha         1 4L2       0.140000
     38 H18          0.9470    -2.0960    -2.5100 ha         1 4L2       0.141000
@<TRIPOS>BOND
     1     5     6 1
     2     5     4 1
     3     6     7 1
     4     4     3 1
     5     7     8 1
     6     7     2 1
     7     3     2 1
     8    20     8 ar
     9    20    19 ar
    10     8     9 ar
    11     2     1 2
    12    19    18 ar
    13     9    10 ar
    14    18    10 ar
    15    18    16 1
    16    10    11 1
    17    16    17 1
    18    16    15 2
    19    11    12 1
    20    11    13 1
    21    15    13 1
    22    13    14 2
    23     3    21 1
    24     3    22 1
    25     4    23 1
    26     4    24 1
    27     5    25 1
    28     5    26 1
    29     6    27 1
    30     6    28 1
    31     9    29 1
    32    12    30 1
    33    12    31 1
    34    12    32 1
    35    15    33 1
    36    17    34 1
    37    17    35 1
    38    17    36 1
    39    19    37 1
    40    20    38 1
@<TRIPOS>SUBSTRUCTURE
     1 4L2         1 TEMP              0 ****  ****    0 ROOT
