@<TRIPOS>MOLECULE
4L3
   65    68     1     0     0
SMALL
bcc


@<TRIPOS>ATOM
      1 CAK          0.0000     0.0000     0.0000 c3         1 4L3       0.052100
      2 CAJ          1.5070     0.0000     0.0000 cc         1 4L3       0.002600
      3 CAI          2.2010     0.0000     1.1670 cd         1 4L3      -0.222200
      4 CAH          3.6100    -0.0010     1.1550 c          1 4L3       0.605700
      5 OAL          4.2130    -0.0010     2.2140 o          1 4L3      -0.696500
      6 NAG          4.3070    -0.0020     0.0050 n          1 4L3       0.084000
      7 CAM          5.7710    -0.0020     0.0460 c3         1 4L3       0.032300
      8 CAD          3.6620    -0.0020    -1.2150 ca         1 4L3      -0.046400
      9 CAC          4.3820    -0.0040    -2.4020 ca         1 4L3      -0.135000
     10 CAE          2.2540    -0.0080    -1.2580 ca         1 4L3      -0.115800
     11 CAF          1.5910    -0.0090    -2.4920 ca         1 4L3      -0.040000
     12 CAA          2.3130    -0.0060    -3.6480 ca         1 4L3      -0.136000
     13 CAB          3.7090    -0.0050    -3.6130 ca         1 4L3      -0.022400
     14 NAN          4.4310    -0.0070    -4.8060 n          1 4L3      -0.009000
     15 CAO          5.1690     1.0670    -5.0930 c          1 4L3       0.608500
     16 OAT          5.1420     2.0030    -4.3220 o          1 4L3      -0.675500
     17 CAP          6.0320     1.1790    -6.3170 c3         1 4L3      -0.081400
     18 CAQ          5.6090     0.1300    -7.3490 c3         1 4L3      -0.055400
     19 CAR          5.5050    -1.2280    -6.6460 c3         1 4L3       0.018700
     20 NBA          5.2720    -2.2790    -7.6390 ns         1 4L3      -0.166900
     21 CBB          6.3150    -2.8400    -8.2830 c          1 4L3       0.689100
     22 OBH          7.4470    -2.4740    -8.0400 o          1 4L3      -0.660000
     23 OBC          6.1000    -3.8070    -9.1960 os         1 4L3      -0.417900
     24 CBD          7.2700    -4.3650    -9.8500 c3         1 4L3       0.194800
     25 CBF          8.1930    -4.9880    -8.8010 c3         1 4L3      -0.029100
     26 CBG          6.8320    -5.4410   -10.8470 c3         1 4L3      -0.029100
     27 CBE          8.0180    -3.2570   -10.5940 c3         1 4L3      -0.029100
     28 CAS          4.3380    -1.1840    -5.6610 c3         1 4L3       0.077000
     29 CAU          4.3590    -2.4280    -4.8080 ca         1 4L3      -0.127300
     30 CAV          3.3990    -3.4060    -4.9920 ca         1 4L3      -0.084000
     31 CAW          3.4190    -4.5460    -4.2100 ca         1 4L3      -0.095500
     32 CAX          4.3960    -4.7080    -3.2460 ca         1 4L3      -0.086000
     33 CAY          5.3550    -3.7290    -3.0640 ca         1 4L3      -0.095500
     34 CAZ          5.3390    -2.5910    -3.8480 ca         1 4L3      -0.084000
     35 H1          -0.3610    -0.8920    -0.4970 hc         1 4L3       0.014700
     36 H2          -0.3610     0.8760    -0.5250 hc         1 4L3       0.014700
     37 H3          -0.3610     0.0160     1.0210 hc         1 4L3       0.014700
     38 H4           1.6700    -0.0010     2.1110 ha         1 4L3       0.138000
     39 H5           6.1490     0.8460    -0.5130 h1         1 4L3       0.030033
     40 H6           6.1450    -0.9190    -0.3920 h1         1 4L3       0.030033
     41 H7           6.1030     0.0680     1.0750 h1         1 4L3       0.030033
     42 H8           5.4650    -0.0040    -2.3810 ha         1 4L3       0.131000
     43 H9           0.5090    -0.0100    -2.5270 ha         1 4L3       0.111000
     44 H10          1.8000    -0.0060    -4.6020 ha         1 4L3       0.109000
     45 H11          7.0660     1.0140    -6.0430 hc         1 4L3       0.047200
     46 H12          5.9200     2.1670    -6.7450 hc         1 4L3       0.047200
     47 H13          6.3500     0.0760    -8.1370 hc         1 4L3       0.033200
     48 H14          4.6450     0.3980    -7.7660 hc         1 4L3       0.033200
     49 H15          6.4240    -1.4270    -6.1080 h1         1 4L3       0.073700
     50 H16          4.3370    -2.5500    -7.8710 hn         1 4L3       0.177500
     51 H17          8.8000    -4.2130    -8.3480 hc         1 4L3       0.019478
     52 H18          7.5970    -5.4720    -8.0370 hc         1 4L3       0.019478
     53 H19          8.8370    -5.7200    -9.2750 hc         1 4L3       0.019478
     54 H20          6.3070    -6.2290   -10.3200 hc         1 4L3       0.019478
     55 H21          7.7040    -5.8550   -11.3390 hc         1 4L3       0.019478
     56 H22          6.1740    -5.0010   -11.5870 hc         1 4L3       0.019478
     57 H23          7.3040    -2.5510   -11.0020 hc         1 4L3       0.019478
     58 H24          8.6790    -2.7440    -9.9060 hc         1 4L3       0.019478
     59 H25          8.5980    -3.6900   -11.3990 hc         1 4L3       0.019478
     60 H26          3.4080    -1.1450    -6.2160 h1         1 4L3       0.032700
     61 H27          2.6330    -3.2800    -5.7470 ha         1 4L3       0.107500
     62 H28          2.6670    -5.3130    -4.3530 ha         1 4L3       0.106500
     63 H29          4.4100    -5.6010    -2.6330 ha         1 4L3       0.106000
     64 H30          6.1220    -3.8560    -2.3100 ha         1 4L3       0.106500
     65 H31          6.0910    -1.8240    -3.7050 ha         1 4L3       0.107500
@<TRIPOS>BOND
     1     1     2 1   
     2     1    35 1   
     3     1    36 1   
     4     1    37 1   
     5     2     3 2   
     6     2    10 1   
     7     3     4 1   
     8     3    38 1   
     9     4     5 2   
    10     4     6 1   
    11     6     7 1   
    12     6     8 1   
    13     7    39 1   
    14     7    40 1   
    15     7    41 1   
    16     8     9 ar  
    17     8    10 ar  
    18     9    13 ar  
    19     9    42 1   
    20    10    11 ar  
    21    11    12 ar  
    22    11    43 1   
    23    12    13 ar  
    24    12    44 1   
    25    13    14 1   
    26    14    15 1   
    27    14    28 1   
    28    15    16 2   
    29    15    17 1   
    30    17    18 1   
    31    17    45 1   
    32    17    46 1   
    33    18    19 1   
    34    18    47 1   
    35    18    48 1   
    36    19    20 1   
    37    19    28 1   
    38    19    49 1   
    39    20    21 1   
    40    20    50 1   
    41    21    22 2   
    42    21    23 1   
    43    23    24 1   
    44    24    25 1   
    45    24    26 1   
    46    24    27 1   
    47    25    51 1   
    48    25    52 1   
    49    25    53 1   
    50    26    54 1   
    51    26    55 1   
    52    26    56 1   
    53    27    57 1   
    54    27    58 1   
    55    27    59 1   
    56    28    29 1   
    57    28    60 1   
    58    29    30 ar  
    59    29    34 ar  
    60    30    31 ar  
    61    30    61 1   
    62    31    32 ar  
    63    31    62 1   
    64    32    33 ar  
    65    32    63 1   
    66    33    34 ar  
    67    33    64 1   
    68    34    65 1   
@<TRIPOS>SUBSTRUCTURE
     1 4L3         1 TEMP              0 ****  ****    0 ROOT
