@<TRIPOS>MOLECULE
4L5
   44    46     1     0     0
SMALL
bcc


@<TRIPOS>ATOM
      1 C10          0.0000     0.0000     0.0000 ca         1 4L5       0.178200
      2 C13         -6.3330    -0.6160     2.1690 c3         1 4L5      -0.010600
      3 C15          1.3970     0.0000     0.0000 ca         1 4L5      -0.242000
      4 C17          1.3730    -0.0010     2.4100 ca         1 4L5      -0.313600
      5 C20          2.0980    -0.0020     3.6900 c          1 4L5       0.352700
      6 C01         -4.4030    -0.0200    -0.9520 cc         1 4L5       0.588200
      7 C02         -4.6910    -0.0230    -2.3300 cc         1 4L5      -0.293300
      8 C03         -3.6780    -0.0210    -3.2370 cd         1 4L5       0.070000
      9 C04         -2.3450    -0.0150    -2.7830 cd         1 4L5      -0.299300
     10 N05         -2.0990    -0.0110    -1.4370 na         1 4L5       0.771200
     11 N06         -3.1610    -0.0140    -0.5280 nd         1 4L5      -0.779800
     12 N07         -1.1820    -0.0100    -3.4260 nc         1 4L5      -0.190600
     13 C08         -0.1880    -0.0050    -2.5450 cc         1 4L5       0.067600
     14 C09         -0.7360    -0.0060    -1.2770 cd         1 4L5      -0.365300
     15 C12         -5.1540    -0.0080     1.4050 c3         1 4L5       0.124500
     16 C14         -4.9330     1.4330     1.8720 c3         1 4L5      -0.010600
     17 C16          2.0850     0.0000     1.1980 ca         1 4L5       0.286100
     18 C18         -0.0270    -0.0010     2.3970 ca         1 4L5      -0.043000
     19 C19         -0.7020     0.0000     1.2120 ca         1 4L5      -0.151000
     20 O21          3.3140    -0.0010     3.7010 o          1 4L5      -0.441100
     21 N22          1.4140    -0.0030     4.8520 nz         1 4L5       0.200600
     22 O23          3.4410    -0.0000     1.2070 os         1 4L5      -0.276900
     23 H131        -6.1250    -0.5930     3.2320 hc         1 4L5       0.013867
     24 H132        -7.2300    -0.0450     1.9640 hc         1 4L5       0.013867
     25 H133        -6.4770    -1.6420     1.8530 hc         1 4L5       0.013867
     26 H151         1.9400     0.0010    -0.9380 ha         1 4L5       0.153000
     27 H241         5.1700     0.0030     0.0830 h1         1 4L5       0.013033
     28 H243         3.8060     0.8830    -0.6200 h1         1 4L5       0.013033
     29 H242         3.8110    -0.8860    -0.6180 h1         1 4L5       0.013033
     30 H021        -5.7200    -0.0270    -2.6680 ha         1 4L5       0.136000
     31 H031        -3.8950    -0.0230    -4.2990 ha         1 4L5       0.134000
     32 H081         0.8690     0.0020    -2.7800 h4         1 4L5       0.145000
     33 H111        -6.3940    -0.0220    -0.3480 hn         1 4L5       0.306800
     34 H121        -4.2610    -0.5900     1.5960 h1         1 4L5       0.043700
     35 H143        -4.3420     1.9640     1.1360 hc         1 4L5       0.013867
     36 H141        -5.8910     1.9250     1.9900 hc         1 4L5       0.013867
     37 H142        -4.4100     1.4290     2.8200 hc         1 4L5       0.013867
     38 H181        -0.5760    -0.0010     3.3300 ha         1 4L5       0.076000
     39 H191        -1.7850     0.0000     1.2090 ha         1 4L5       0.161000
     40 H221         0.8410    -0.8210     4.9010 hn         1 4L5       0.241133
     41 H222         0.8360     0.8130     4.9000 hn         1 4L5       0.241133
     42 H223         2.0580    -0.0000     5.6180 hn         1 4L5       0.241133
     43 N11         -5.4450    -0.0170    -0.0300 nu         1 4L5      -0.462900
     44 C24          4.0970     0.0000    -0.0640 c3         1 4L5       0.239700
@<TRIPOS>BOND
     1     1     3 ar  
     2     1    14 1   
     3     1    19 ar  
     4     2    15 1   
     5     2    23 1   
     6     2    24 1   
     7     2    25 1   
     8     3    17 ar  
     9     3    26 1   
    10     4     5 1   
    11     4    17 ar  
    12     4    18 ar  
    13     5    20 2   
    14     5    21 1   
    15     6     7 1   
    16     6    11 2   
    17     6    43 1   
    18     7     8 2   
    19     7    30 1   
    20     8     9 1   
    21     8    31 1   
    22     9    10 1   
    23     9    12 2   
    24    10    11 1   
    25    10    14 1   
    26    12    13 1   
    27    13    14 2   
    28    13    32 1   
    29    15    16 1   
    30    15    34 1   
    31    15    43 1   
    32    16    35 1   
    33    16    36 1   
    34    16    37 1   
    35    17    22 1   
    36    18    19 ar  
    37    18    38 1   
    38    19    39 1   
    39    21    40 1   
    40    21    41 1   
    41    21    42 1   
    42    22    44 1   
    43    27    44 1   
    44    28    44 1   
    45    29    44 1   
    46    33    43 1   
@<TRIPOS>SUBSTRUCTURE
     1 4L5         1 TEMP              0 ****  ****    0 ROOT
