@<TRIPOS>MOLECULE
4L6
   39    42     1     0     0
SMALL
bcc


@<TRIPOS>ATOM
      1 C1           0.0000     0.0000     0.0000 c3         1 4L6       0.059200
      2 C2           1.5070     0.0000     0.0000 ca         1 4L6      -0.110300
      3 C3           2.1810     0.0000     1.1820 ca         1 4L6      -0.006000
      4 C4           3.5840    -0.0000     1.1890 ca         1 4L6      -0.245900
      5 C5           4.5510     0.0000     2.2220 cc         1 4L6       0.438800
      6 N6           5.7370     0.0010     1.6850 nd         1 4L6      -0.624100
      7 N7           5.6230     0.0010     0.2900 na         1 4L6       0.429900
      8 C9           4.2900     0.0000    -0.0300 ca         1 4L6      -0.197200
      9 C10          3.5900     0.0000    -1.2320 ca         1 4L6      -0.087000
     10 C11          2.2020    -0.0050    -1.2170 cp         1 4L6      -0.029000
     11 C12          1.4520    -0.0100    -2.4940 cp         1 4L6      -0.022300
     12 C13          1.5330    -1.0980    -3.3490 ca         1 4L6      -0.051000
     13 C14          0.8330    -1.1130    -4.5480 ca         1 4L6      -0.065000
     14 C15          0.0480    -0.0590    -4.9170 ca         1 4L6      -0.079000
     15 C16         -0.0600     1.0570    -4.0800 ca         1 4L6      -0.157300
     16 C17         -0.8640     2.1740    -4.4200 ca         1 4L6       0.125300
     17 N18         -1.5790     2.2110    -5.5970 nv         1 4L6      -0.549200
     18 C19         -0.9000     3.2380    -3.5080 ca         1 4L6       0.132800
     19 N20         -0.1970     3.1730    -2.3760 nb         1 4L6      -0.325000
     20 N21          0.5340     2.1650    -2.0600 nb         1 4L6      -0.192000
     21 C22          0.6410     1.0910    -2.8500 ca         1 4L6       0.355600
     22 C23         -1.7150     4.4300    -3.8000 c          1 4L6       0.270600
     23 N24         -1.6640     5.4990    -2.9800 nz         1 4L6       0.212600
     24 O25         -2.4350     4.4500    -4.7810 o          1 4L6      -0.444100
     25 H1          -0.3610     1.0210    -0.0420 hc         1 4L6       0.008033
     26 H1A         -0.3610    -0.4740     0.9050 hc         1 4L6       0.008033
     27 H1B         -0.3610    -0.5470    -0.8630 hc         1 4L6       0.008033
     28 H3           1.6350     0.0070     2.1180 ha         1 4L6       0.112000
     29 H5           4.3780     0.0040     3.2920 h4         1 4L6       0.019800
     30 H10          4.1250    -0.0040    -2.1740 ha         1 4L6       0.107000
     31 H13          2.0420    -2.0390    -3.1780 ha         1 4L6       0.132000
     32 H14          0.9370    -1.9810    -5.1880 ha         1 4L6       0.124000
     33 H15         -0.4430    -0.1740    -5.8760 ha         1 4L6       0.127000
     34 HN18        -2.5030     1.8290    -5.6340 hn         1 4L6       0.306800
     35 HN1A        -1.1630     2.5950    -6.4230 hn         1 4L6       0.306800
     36 HN24        -2.1290     5.2820    -2.1210 hn         1 4L6       0.247133
     37 HN2A        -0.7090     5.7320    -2.7940 hn         1 4L6       0.247133
     38 H7           6.3920    -0.0020    -0.3520 hn         1 4L6       0.157700
     39 H243        -2.1270     6.2730    -3.4130 hn         1 4L6       0.247133
@<TRIPOS>BOND
     1     1     2 1   
     2     1    25 1   
     3     1    26 1   
     4     1    27 1   
     5     2     3 ar  
     6     2    10 ar  
     7     3     4 ar  
     8     3    28 1   
     9     4     5 1   
    10     4     8 ar  
    11     5     6 2   
    12     5    29 1   
    13     6     7 1   
    14     7     8 1   
    15     7    38 1   
    16     8     9 ar  
    17     9    10 ar  
    18     9    30 1   
    19    10    11 1   
    20    11    12 ar  
    21    11    21 ar  
    22    12    13 ar  
    23    12    31 1   
    24    13    14 ar  
    25    13    32 1   
    26    14    15 ar  
    27    14    33 1   
    28    15    16 ar  
    29    15    21 ar  
    30    16    17 1   
    31    16    18 ar  
    32    17    34 1   
    33    17    35 1   
    34    18    19 ar  
    35    18    22 1   
    36    19    20 ar  
    37    20    21 ar  
    38    22    23 1   
    39    22    24 2   
    40    23    36 1   
    41    23    37 1   
    42    23    39 1   
@<TRIPOS>SUBSTRUCTURE
     1 4L6         1 TEMP              0 ****  ****    0 ROOT
