@<TRIPOS>MOLECULE
molecule
   38    41     1     0     0
SMALL
bcc


@<TRIPOS>ATOM
      1 C4           0.0000     0.0000     0.0000 c          1 4L7       0.612700
      2 C5           1.5070     0.0000     0.0000 c3         1 4L7      -0.168700
      3 C6           2.0430     0.0000     1.4470 c3         1 4L7       0.150800
      4 C7           2.8580    -1.9830     0.4980 c3         1 4L7       0.145800
      5 C1          -2.4900     2.6490    -0.2200 cc         1 4L7      -0.147000
      6 C2          -2.0720     1.3480    -0.1160 cc         1 4L7      -0.072000
      7 C3          -0.7060     1.2170    -0.1000 cd         1 4L7      -0.148700
      8 C           -1.5080     3.5600    -0.2890 cd         1 4L7       0.004000
      9 O           -0.6070    -1.0490     0.0800 o          1 4L7      -0.505100
     10 N            2.2910    -1.4320     1.7550 n7         1 4L7      -0.780200
     11 C15          5.4270    -0.1260    -5.1190 c          1 4L7       0.705100
     12 N1           5.0330    -0.6360    -6.3090 ns         1 4L7      -0.478400
     13 C16          3.8990    -1.3780    -6.4020 cd         1 4L7       0.503800
     14 N2           3.1350    -1.6440    -5.3870 nc         1 4L7      -0.644100
     15 C11          3.4220    -1.1900    -4.1410 ca         1 4L7       0.194400
     16 C10          2.6010    -1.4770    -3.0490 ca         1 4L7      -0.110000
     17 C12          4.5860    -0.4140    -3.9470 ca         1 4L7      -0.206600
     18 C13          4.9020     0.0640    -2.6780 ca         1 4L7      -0.051000
     19 C14          4.0720    -0.2260    -1.6170 ca         1 4L7      -0.155000
     20 C9           2.9310    -0.9940    -1.8030 ca         1 4L7      -0.050300
     21 C8           2.0430    -1.3050    -0.6250 c3         1 4L7      -0.022400
     22 S            0.0240     2.8130    -0.2230 ss         1 4L7      -0.015800
     23 H2           1.8890     0.8580    -0.5400 hc         1 4L7       0.070700
     24 H4           2.9660     0.5630     1.5070 h1         1 4L7       0.046700
     25 H3           1.3000     0.4070     2.1230 h1         1 4L7       0.046700
     26 H6           2.7240    -3.0570     0.4640 h1         1 4L7       0.048700
     27 H7           3.9060    -1.7230     0.4120 h1         1 4L7       0.048700
     28 H1          -2.7510     0.5070    -0.0520 ha         1 4L7       0.176000
     29 H5           2.9710    -1.5030     2.4870 hn         1 4L7       0.349800
     30 H12          5.5820    -0.4640    -7.1280 hn         1 4L7       0.338500
     31 H13          3.6190    -1.7680    -7.3730 h5         1 4L7       0.055800
     32 H9           1.7070    -2.0750    -3.1830 ha         1 4L7       0.157000
     33 H10          5.7920     0.6640    -2.5270 ha         1 4L7       0.156000
     34 H11          4.3150     0.1440    -0.6280 ha         1 4L7       0.135000
     35 H8           1.2190    -1.9410    -0.9250 hc         1 4L7       0.096700
     36 H           -3.5390     2.9210    -0.2460 ha         1 4L7       0.163000
     37 Br          -1.7840     5.4250    -0.4350 br         1 4L7      -0.031100
     38 O1           6.4410     0.5410    -5.0210 o          1 4L7      -0.621500
@<TRIPOS>BOND
     1    37     8 1
     2     5     8 2
     3     5     6 1
     4     8    22 1
     5     6     7 2
     6    14    13 2
     7    14    15 1
     8    13    12 1
     9     7    22 1
    10     7     1 1
    11    16    15 ar
    12    16    20 ar
    13    12    11 1
    14    15    17 ar
    15     3     2 1
    16     3    10 1
    17     2     1 1
    18     2    21 1
    19     1     9 2
    20    10     4 1
    21     4    21 1
    22    20    21 1
    23    20    19 ar
    24    17    11 1
    25    17    18 ar
    26    11    38 2
    27    19    18 ar
    28     2    23 1
    29     3    24 1
    30     3    25 1
    31     4    26 1
    32     4    27 1
    33     5    36 1
    34     6    28 1
    35    10    29 1
    36    12    30 1
    37    13    31 1
    38    16    32 1
    39    18    33 1
    40    19    34 1
    41    21    35 1
@<TRIPOS>SUBSTRUCTURE
     1 4L7         1 TEMP              0 ****  ****    0 ROOT
