@<TRIPOS>MOLECULE
4L9
   57    59     1     0     0
SMALL
bcc


@<TRIPOS>ATOM
      1 C1           0.0000     0.0000     0.0000 c3         1 4L9      -0.012100
      2 C2           1.5300     0.0000     0.0000 c3         1 4L9      -0.051300
      3 O5           2.7290     2.0300    -0.1190 o          1 4L9      -0.658100
      4 N6           1.7070     1.4450    -2.0000 ns         1 4L9      -0.138900
      5 C7           2.1950     2.6400    -2.6910 c3         1 4L9      -0.007300
      6 C9           2.2480     2.3750    -4.2020 c3         1 4L9       0.021800
      7 C10          2.6600     3.6320    -4.9100 c2         1 4L9      -0.140200
      8 C11          2.3560     4.8170    -4.8940 c2         1 4L9      -0.141200
      9 C12          1.5600     5.6620    -3.9710 c3         1 4L9       0.122200
     10 C15          1.2740     3.7810    -2.4210 c          1 4L9       0.554500
     11 C19          2.2630     8.0590    -4.1210 ca         1 4L9      -0.087000
     12 C20          3.0430     9.1240    -3.7090 ca         1 4L9      -0.096500
     13 C21          3.9740     8.9490    -2.7020 ca         1 4L9      -0.092000
     14 C22          4.1260     7.7110    -2.1070 ca         1 4L9      -0.096500
     15 C27          2.6480    -1.1630     3.4720 c3         1 4L9      -0.041100
     16 C30          1.6440    -4.4230     5.0930 ca         1 4L9       0.133900
     17 C31          2.7930    -5.1780     4.9330 ca         1 4L9      -0.170000
     18 C32          3.8950    -4.6310     4.2980 ca         1 4L9       0.133900
     19 C33          3.8470    -3.3310     3.8250 ca         1 4L9      -0.132000
     20 C4           2.0320     1.2310    -0.7090 c          1 4L9       0.583100
     21 N14          1.0760     4.9710    -2.7910 n          1 4L9      -0.035800
     22 O16          0.4560     3.4650    -1.5830 o          1 4L9      -0.753500
     23 C17          0.2350     5.7720    -1.8970 c3         1 4L9       0.061300
     24 C18          2.4140     6.8200    -3.5260 ca         1 4L9      -0.126300
     25 C23          3.3450     6.6470    -2.5190 ca         1 4L9      -0.087000
     26 N24          2.0180     0.0000     1.3820 ns         1 4L9      -0.170900
     27 C25          2.1460    -1.1620     2.0510 c          1 4L9       0.568100
     28 O26          1.8580    -2.2090     1.5090 o          1 4L9      -0.652100
     29 C28          2.6990    -2.5780     3.9870 ca         1 4L9      -0.012300
     30 C29          1.5960    -3.1240     4.6150 ca         1 4L9      -0.132000
     31 F35          0.5670    -4.9540     5.7120 f          1 4L9      -0.125900
     32 H1          -0.3610    -0.1040    -1.0160 hc         1 4L9       0.018367
     33 H2          -0.3610    -0.8280     0.5980 hc         1 4L9       0.018367
     34 H3          -0.3610     0.9320     0.4180 hc         1 4L9       0.018367
     35 H4           1.8910    -0.8840    -0.5110 h1         1 4L9       0.061700
     36 H5           1.1490     0.7750    -2.4920 hn         1 4L9       0.176500
     37 H6           3.1880     2.8890    -2.3350 h1         1 4L9       0.068700
     38 H7           2.9700     1.5930    -4.4060 hc         1 4L9       0.029700
     39 H8           1.2680     2.0700    -4.5490 hc         1 4L9       0.029700
     40 H9           3.4410     3.4370    -5.6350 ha         1 4L9       0.086000
     41 H10          2.7560     5.3690    -5.7360 ha         1 4L9       0.102000
     42 H11          0.7060     6.0480    -4.5140 h1         1 4L9       0.041700
     43 H12          1.5340     8.1960    -4.9100 ha         1 4L9       0.109500
     44 H13          2.9250    10.0950    -4.1740 ha         1 4L9       0.106500
     45 H14          4.5850     9.7830    -2.3790 ha         1 4L9       0.105000
     46 H15          4.8550     7.5740    -1.3180 ha         1 4L9       0.106500
     47 H16          1.9790    -0.5770     4.0910 hc         1 4L9       0.035700
     48 H17          3.6410    -0.7300     3.5050 hc         1 4L9       0.035700
     49 H18          2.8300    -6.1940     5.3050 ha         1 4L9       0.133000
     50 H19          4.7100    -2.9040     3.3280 ha         1 4L9       0.123000
     51 H20          0.1280     6.7720    -2.3010 h1         1 4L9       0.023367
     52 H21          0.6970     5.8260    -0.9180 h1         1 4L9       0.023367
     53 H22         -0.7410     5.3110    -1.8100 h1         1 4L9       0.023367
     54 H23          3.4640     5.6760    -2.0530 ha         1 4L9       0.109500
     55 H24          2.2460     0.8640     1.8320 hn         1 4L9       0.197500
     56 H25          0.6970    -2.5330     4.7400 ha         1 4L9       0.123000
     57 F34          5.0170    -5.3660     4.1400 f          1 4L9      -0.125900
@<TRIPOS>BOND
     1     1     2 1   
     2     1    32 1   
     3     1    33 1   
     4     1    34 1   
     5     2    20 1   
     6     2    26 1   
     7     2    35 1   
     8     3    20 2   
     9     4     5 1   
    10     4    20 1   
    11     4    36 1   
    12     5     6 1   
    13     5    10 1   
    14     5    37 1   
    15     6     7 1   
    16     6    38 1   
    17     6    39 1   
    18     7     8 2   
    19     7    40 1   
    20     8     9 1   
    21     8    41 1   
    22     9    21 1   
    23     9    24 1   
    24     9    42 1   
    25    10    21 1   
    26    10    22 2   
    27    11    12 ar  
    28    11    24 ar  
    29    11    43 1   
    30    12    13 ar  
    31    12    44 1   
    32    13    14 ar  
    33    13    45 1   
    34    14    25 ar  
    35    14    46 1   
    36    15    27 1   
    37    15    29 1   
    38    15    47 1   
    39    15    48 1   
    40    16    17 ar  
    41    16    30 ar  
    42    16    31 1   
    43    17    18 ar  
    44    17    49 1   
    45    18    19 ar  
    46    18    57 1   
    47    19    29 ar  
    48    19    50 1   
    49    21    23 1   
    50    23    51 1   
    51    23    52 1   
    52    23    53 1   
    53    24    25 ar  
    54    25    54 1   
    55    26    27 1   
    56    26    55 1   
    57    27    28 2   
    58    29    30 ar  
    59    30    56 1   
@<TRIPOS>SUBSTRUCTURE
     1 4L9         1 TEMP              0 ****  ****    0 ROOT
