@<TRIPOS>MOLECULE
molecule
   41    42     1     0     0
SMALL
bcc


@<TRIPOS>ATOM
      1 C1           0.0000     0.0000     0.0000 ca         1 4LB      -0.129000
      2 C2           1.3820     0.0000     0.0000 ca         1 4LB      -0.125000
      3 C3           2.0740     0.0000     1.1970 ca         1 4LB      -0.124000
      4 C9          -3.0040     0.0260     4.5000 c          1 4LB       0.744100
      5 C12         -5.2340     0.0450     5.4840 c3         1 4LB       0.128000
      6 C13         -6.6880     0.0570     5.0080 c3         1 4LB      -0.086700
      7 C15         -7.6180     0.1910     6.2160 c3         1 4LB      -0.079900
      8 C16         -9.0730     0.2020     5.7410 c3         1 4LB      -0.056900
      9 C19         -8.4480    -1.2360     3.7950 c3         1 4LB      -0.056900
     10 C20         -6.9940    -1.2480     4.2700 c3         1 4LB      -0.079900
     11 C21        -10.8110    -1.0900     4.5340 c          1 4LB       0.894600
     12 C4           1.3820     0.0000     2.3960 ca         1 4LB       0.028400
     13 C5          -0.0020     0.0010     2.3950 ca         1 4LB      -0.082300
     14 C6          -0.6920     0.0060     1.1980 ca         1 4LB      -0.095000
     15 O8          -2.1840     0.0190     3.4330 os         1 4LB      -0.452900
     16 O10         -2.5410     0.0220     5.6230 o          1 4LB      -0.620000
     17 N11         -4.3400     0.0370     4.3220 ns         1 4LB      -0.562900
     18 C17         -9.3790    -1.1020     5.0030 c3         1 4LB      -0.170700
     19 O22        -11.8080    -0.9800     5.4260 o          1 4LB      -0.850800
     20 O23        -11.0620    -1.1800     3.3560 o          1 4LB      -0.850800
     21 Cl1          2.2490    -0.0010     3.8990 cl         1 4LB      -0.110400
     22 H1          -0.5410     0.0020    -0.9380 ha         1 4LB       0.135000
     23 H2           1.9240    -0.0020    -0.9380 ha         1 4LB       0.132000
     24 H3           3.1570    -0.0000     1.1970 ha         1 4LB       0.140000
     25 H4          -0.5020    -0.8790     4.2680 h1         1 4LB       0.068700
     26 H5          -0.4880     0.8900     4.2670 h1         1 4LB       0.068700
     27 H6          -5.0560    -0.8410     6.0820 h1         1 4LB       0.049700
     28 H7          -5.0420     0.9280     6.0810 h1         1 4LB       0.049700
     29 H8          -6.8470     0.8930     4.3390 hc         1 4LB       0.051700
     30 H9          -7.4640    -0.6490     6.8840 hc         1 4LB       0.027450
     31 H10         -7.4020     1.1160     6.7360 hc         1 4LB       0.027450
     32 H11         -9.2250     1.0390     5.0700 hc         1 4LB       0.048700
     33 H12         -9.7300     0.2940     6.5970 hc         1 4LB       0.048700
     34 H13         -8.6020    -0.3970     3.1280 hc         1 4LB       0.048700
     35 H14         -8.6640    -2.1620     3.2760 hc         1 4LB       0.048700
     36 H15         -6.3370    -1.3400     3.4140 hc         1 4LB       0.027450
     37 H16         -6.8420    -2.0850     4.9410 hc         1 4LB       0.027450
     38 H17         -1.7760     0.0060     1.1970 ha         1 4LB       0.161000
     39 H18         -4.7220     0.0880     3.3980 hn         1 4LB       0.325500
     40 H19         -9.2200    -1.9390     5.6720 hc         1 4LB       0.039700
     41 C7          -0.7560     0.0070     3.6990 c3         1 4LB       0.214700
@<TRIPOS>BOND
     1    20    11 1
     2    19    11 1
     3    11    18 1
     4    18     9 1
     5    18     8 1
     6     9    10 1
     7     8     7 1
     8    10     6 1
     9     7     6 1
    10     6     5 1
    11     5    17 1
    12    17     4 1
    13    16     4 2
    14     4    15 1
    15    15    41 1
    16    41    13 1
    17    13    14 ar
    18    13    12 ar
    19    14     1 ar
    20    21    12 1
    21    12     3 ar
    22     1     2 ar
    23     3     2 ar
    24     1    22 1
    25     2    23 1
    26     3    24 1
    27    41    25 1
    28    41    26 1
    29     5    27 1
    30     5    28 1
    31     6    29 1
    32     7    30 1
    33     7    31 1
    34     8    32 1
    35     8    33 1
    36     9    34 1
    37     9    35 1
    38    10    36 1
    39    10    37 1
    40    14    38 1
    41    17    39 1
    42    18    40 1
@<TRIPOS>SUBSTRUCTURE
     1 4LB         1 TEMP              0 ****  ****    0 ROOT
