@<TRIPOS>MOLECULE
4LC
   62    68     1     0     0
SMALL
bcc


@<TRIPOS>ATOM
      1 C13          0.0000     0.0000     0.0000 c2         1 4LC      -0.177000
      2 C17         -0.7360     0.0010    -1.2780 c2         1 4LC       0.295000
      3 C20          1.0590     1.3490    -2.2680 c3         1 4LC      -0.157000
      4 C01         -1.7540     0.0180     4.2480 c3         1 4LC      -0.123000
      5 N05         -0.3830     0.0160     3.7330 na         1 4LC       0.340000
      6 C06          0.7660     0.0190     4.4770 c2         1 4LC      -0.086000
      7 N07          1.8120     0.0160     3.6790 n2         1 4LC      -0.077000
      8 C08          1.4050     0.0100     2.3940 c2         1 4LC      -0.103000
      9 C09          2.0930     0.0000     1.1730 c3         1 4LC       0.000000
     10 C11          1.4020     0.0000     0.0000 c2         1 4LC      -0.245000
     11 C14         -0.7000     0.0050     1.2070 c2         1 4LC       0.048000
     12 C16         -0.0030     0.0100     2.4010 c2         1 4LC      -0.294000
     13 O18         -1.7910    -0.5980    -1.3730 o          1 4LC      -0.395000
     14 N19         -0.2400     0.6640    -2.3410 n          1 4LC       0.031000
     15 C23          0.8800     2.7840    -2.7770 c3         1 4LC       0.048000
     16 O26          0.2510     2.7530    -4.0600 os         1 4LC      -0.257000
     17 C27         -1.0640     2.1900    -4.0540 c3         1 4LC       0.110000
     18 C29         -0.9840     0.7250    -3.6100 c3         1 4LC      -0.098000
     19 C31         -2.3940     0.1700    -3.4080 c3         1 4LC       0.011000
     20 O34         -2.3310    -1.2500    -3.2620 oh         1 4LC      -0.263000
     21 C36         -1.6500     2.2650    -5.4400 ca         1 4LC      -0.089000
     22 C37         -0.8560     2.0010    -6.5410 ca         1 4LC      -0.082500
     23 C39         -1.3940     2.0690    -7.8120 ca         1 4LC      -0.104500
     24 C41         -2.7260     2.4020    -7.9830 ca         1 4LC      -0.098000
     25 C43         -3.5190     2.6660    -6.8820 ca         1 4LC      -0.104500
     26 C45         -2.9820     2.5930    -5.6100 ca         1 4LC      -0.082500
     27 C47          0.8230     0.0270     5.9490 c2         1 4LC      -0.100000
     28 C48          0.1030     0.8240     6.7870 c2         1 4LC      -0.231000
     29 N50          0.4250     0.5420     8.0770 na         1 4LC       0.357000
     30 C52          1.3750    -0.4580     8.1270 ca         1 4LC      -0.198000
     31 C53          2.0230    -1.0980     9.1720 ca         1 4LC      -0.066000
     32 C55          2.9500    -2.1020     8.8970 ca         1 4LC       0.050000
     33 C56          3.2280    -2.4630     7.5720 ca         1 4LC      -0.100000
     34 C58          2.5950    -1.8360     6.5400 ca         1 4LC      -0.034000
     35 C60          1.6640    -0.8300     6.8020 ca         1 4LC      -0.040000
     36 C61          3.6220    -2.7660     9.9730 c1         1 4LC      -0.099000
     37 N62          4.1660    -3.3020    10.8140 n1         1 4LC      -0.055000
     38 H2           1.4200     1.3060    -1.2470 h1         1 4LC       0.109000
     39 H3          -2.2300    -0.9260     4.0110 h1         1 4LC       0.071000
     40 H4          -1.7360     0.1530     5.3220 h1         1 4LC       0.071000
     41 H5          -2.3100     0.8270     3.7910 h1         1 4LC       0.071000
     42 H6           3.1760    -0.0040     1.1620 hc         1 4LC       0.136000
     43 H7           1.9430    -0.5130     0.7860 DU         1 4LC       0.154000
     44 H8          -1.7470    -0.2730     1.2230 ha         1 4LC       0.121000
     45 H9           1.8510     3.2630    -2.8200 h1         1 4LC       0.050000
     46 H10          0.2460     3.3240    -2.0840 h1         1 4LC       0.050000
     47 H11         -1.6880     2.7420    -3.3620 h1         1 4LC       0.056000
     48 H12         -0.4640     0.1460    -4.3630 h1         1 4LC       0.086000
     49 H13         -3.0500     0.5620    -4.1760 h1         1 4LC       0.068000
     50 H14         -2.7630     0.4660    -2.4330 h1         1 4LC       0.068000
     51 H15         -2.8890    -1.6570    -3.9040 ho         1 4LC       0.154000
     52 H16          0.1420     1.6030    -6.4060 ha         1 4LC       0.111000
     53 H17         -0.7730     1.8630    -8.6750 ha         1 4LC       0.102500
     54 H18         -3.1470     2.4560    -8.9800 ha         1 4LC       0.101000
     55 H19         -4.5620     2.9270    -7.0150 ha         1 4LC       0.102500
     56 H20         -3.6380     2.6550    -4.7500 ha         1 4LC       0.111000
     57 H21         -0.3820     1.7550     6.5210 h4         1 4LC       0.146000
     58 H22          0.0400     0.9840     8.8880 hn         1 4LC       0.071000
     59 H23          1.7710    -0.8530    10.1970 ha         1 4LC       0.111000
     60 H24          3.9500    -3.2430     7.3630 ha         1 4LC       0.117000
     61 H25          2.8140    -2.1200     5.5170 ha         1 4LC       0.121000
     62 H1           1.7610     0.8380    -2.9160 h1         1 4LC       0.109000
@<TRIPOS>BOND
     1     1     2 1   
     2     1    10 1   
     3     1    11 1   
     4     2    13 1   
     5     2    14 1   
     6     3    14 1   
     7     3    15 1   
     8     3    38 1   
     9     3    62 1   
    10     4     5 1   
    11     4    39 1   
    12     4    40 1   
    13     4    41 1   
    14     5     6 1   
    15     5    12 1   
    16     6     7 1   
    17     6    27 1   
    18     7     8 1   
    19     8     9 1   
    20     8    12 1   
    21     9    10 1   
    22     9    42 1   
    23     9    43 1   
    24    10    43 1   
    25    11    12 1   
    26    11    44 1   
    27    14    18 1   
    28    15    16 1   
    29    15    45 1   
    30    15    46 1   
    31    16    17 1   
    32    17    18 1   
    33    17    21 1   
    34    17    47 1   
    35    18    19 1   
    36    18    48 1   
    37    19    20 1   
    38    19    49 1   
    39    19    50 1   
    40    20    51 1   
    41    21    22 1   
    42    21    26 1   
    43    22    23 1   
    44    22    52 1   
    45    23    24 1   
    46    23    53 1   
    47    24    25 1   
    48    24    54 1   
    49    25    26 1   
    50    25    55 1   
    51    26    56 1   
    52    27    28 1   
    53    27    35 1   
    54    28    29 1   
    55    28    57 1   
    56    29    30 1   
    57    29    58 1   
    58    30    31 1   
    59    30    35 1   
    60    31    32 1   
    61    31    59 1   
    62    32    33 1   
    63    32    36 1   
    64    33    34 1   
    65    33    60 1   
    66    34    35 1   
    67    34    61 1   
    68    36    37 1   
@<TRIPOS>SUBSTRUCTURE
     1 4LC         1 TEMP              0 ****  ****    0 ROOT
