@<TRIPOS>MOLECULE
4LD
   54    59     1     0     0
SMALL
bcc


@<TRIPOS>ATOM
      1 C8          0.0430   -0.4700   -0.1130 c3        1 4LD      0.108700
      2 C9          1.2430   -0.0970    2.3600 ca        1 4LD     -0.154000
      3 C10         1.8810    0.0870    3.5760 cp        1 4LD     -0.024000
      4 C13         1.4150    0.1820    4.9490 cp        1 4LD     -0.191300
      5 C14         0.1620    0.1610    5.5870 ca        1 4LD      0.558800
      6 C3          4.2580   -1.0270   -0.9900 cc        1 4LD      0.302000
      7 C2          5.2380    0.9120   -0.3830 cd        1 4LD      0.334600
      8 C16        -2.1490    0.9340    4.8080 cc        1 4LD     -0.050600
      9 N1          5.7840    0.5200   -1.5520 nc        1 4LD     -0.370300
     10 O1          5.2310   -0.6150   -1.9310 os        1 4LD     -0.124100
     11 C15        -1.0740    0.0190    4.8350 cd        1 4LD     -0.321800
     12 C12         2.6050    0.3630    5.7630 ca        1 4LD      0.018800
     13 C4          3.5620   -2.2790   -1.2810 c3        1 4LD     -0.142400
     14 C5          4.2260   -0.0790    0.0210 cd        1 4LD     -0.271600
     15 C6          3.4280   -0.0280    1.2210 ca        1 4LD     -0.004000
     16 C11         3.3180    0.2210    3.6160 ca        1 4LD     -0.058200
     17 C7          2.0150   -0.1620    1.1940 ca        1 4LD      0.115100
     18 N3         -3.1190    0.3520    3.9830 na        1 4LD     -0.017600
     19 O2          1.4620   -0.3670   -0.0580 os        1 4LD     -0.327900
     20 C17        -2.2850    2.2430    5.4650 c3        1 4LD     -0.040800
     21 C18        -1.5090   -1.1000    4.0140 cd        1 4LD      0.362600
     22 C19        -0.7430   -2.3190    3.7690 cx        1 4LD     -0.165000
     23 C20        -0.9810   -3.1530    2.5330 cx        1 4LD     -0.118900
     24 C21        -1.4040   -3.6720    3.8720 cx        1 4LD     -0.118900
     25 C22         1.1810    0.4430    7.6650 ca        1 4LD      0.424200
     26 C23         2.4880    0.4840    7.1500 ca        1 4LD     -0.282300
     27 C24         4.0760    0.1690    2.4490 ca        1 4LD     -0.114000
     28 N4         -2.7590   -0.8440    3.5230 nc        1 4LD     -0.525800
     29 N5          0.0600    0.2970    6.9390 nb        1 4LD     -0.690000
     30 N2          3.7410    0.4600    4.9450 na        1 4LD     -0.174300
     31 H8         -0.3130   -1.3490    0.4810 h1        1 4LD      0.048033
     32 H7         -0.1600   -0.6210   -1.2040 h1        1 4LD      0.048033
     33 H9         -0.4360    0.4710    0.2490 h1        1 4LD      0.048033
     34 H10         0.1470   -0.1980    2.3360 ha        1 4LD      0.163000
     35 H4          2.4560   -2.1180   -1.1900 hc        1 4LD      0.068700
     36 H5          3.8710   -3.0660   -0.5480 hc        1 4LD      0.068700
     37 H6          3.8000   -2.6350   -2.3140 hc        1 4LD      0.068700
     38 H15        -4.0150    0.7240    3.7690 hn        1 4LD      0.321700
     39 H3          4.7870    2.3580    1.1140 hc        1 4LD      0.058700
     40 H1          5.7030    3.0090   -0.3180 hc        1 4LD      0.058700
     41 H2          6.5550    1.9820    0.9130 hc        1 4LD      0.058700
     42 H14        -2.1470    2.1210    6.5690 hc        1 4LD      0.061367
     43 H13        -3.2860    2.7070    5.2800 hc        1 4LD      0.061367
     44 H12        -1.4960    2.9400    5.0850 hc        1 4LD      0.061367
     45 H16         0.3020   -2.2180    4.1340 hc        1 4LD      0.097700
     46 H17        -1.7550   -2.8390    1.8100 hc        1 4LD      0.075200
     47 H18        -0.1050   -3.6020    2.0310 hc        1 4LD      0.075200
     48 H20        -0.8360   -4.4980    4.3360 hc        1 4LD      0.075200
     49 H19        -2.4810   -3.7240    4.1100 hc        1 4LD      0.075200
     50 H21         1.0180    0.5360    8.7560 h4        1 4LD      0.022100
     51 H22         3.3550    0.6140    7.8060 ha        1 4LD      0.148000
     52 H23         5.1700    0.2800    2.4720 ha        1 4LD      0.146000
     53 H11         4.6440    0.2080    5.2610 hn        1 4LD      0.289700
     54 C1          5.5890    2.1330    0.3670 c3        1 4LD     -0.135400
@<TRIPOS>BOND
     1    1   19 1   
     2    1   31 1   
     3    1   32 1   
     4    1   33 1   
     5    2    3 ar  
     6    2   17 ar  
     7    2   34 1   
     8    3    4 1   
     9    3   16 ar  
    10    4    5 ar  
    11    4   12 ar  
    12    5   11 1   
    13    5   29 ar  
    14    6   10 1   
    15    6   13 1   
    16    6   14 2   
    17    7    9 2   
    18    7   14 1   
    19    7   54 1   
    20    8   11 2   
    21    8   18 1   
    22    8   20 1   
    23    9   10 1   
    24   11   21 1   
    25   12   26 ar  
    26   12   30 1   
    27   13   35 1   
    28   13   36 1   
    29   13   37 1   
    30   14   15 1   
    31   15   17 ar  
    32   15   27 ar  
    33   16   27 ar  
    34   16   30 1   
    35   17   19 1   
    36   18   28 1   
    37   18   38 1   
    38   20   42 1   
    39   20   43 1   
    40   20   44 1   
    41   21   22 1   
    42   21   28 2   
    43   22   23 1   
    44   22   24 1   
    45   22   45 1   
    46   23   24 1   
    47   23   46 1   
    48   23   47 1   
    49   24   48 1   
    50   24   49 1   
    51   25   26 ar  
    52   25   29 ar  
    53   25   50 1   
    54   26   51 1   
    55   27   52 1   
    56   30   53 1   
    57   39   54 1   
    58   40   54 1   
    59   41   54 1   
@<TRIPOS>SUBSTRUCTURE
     1 4LD         1 TEMP              0 ****  ****    0 ROOT
