@<TRIPOS>MOLECULE
molecule
   12    11     1     0     0
SMALL
bcc


@<TRIPOS>ATOM
      1 C01          0.0000     0.0000     0.0000 c3         1 4LE       0.630900
      2 C02          1.5300     0.0000     0.0000 c3         1 4LE       0.188500
      3 O01          2.0060     0.0000     1.3480 os         1 4LE      -0.411600
      4 C03          3.4310    -0.0000     1.4610 c3         1 4LE       0.576700
      5 F01         -0.4660     1.1430     0.6590 f          1 4LE      -0.205633
      6 F02         -0.4660    -0.0000    -1.3190 f          1 4LE      -0.205633
      7 F03         -0.4670    -1.1410     0.6600 f          1 4LE      -0.205633
      8 Cl1          2.1320     1.4720    -0.8500 cl         1 4LE      -0.136400
      9 F04          3.9480    -1.1430     0.8410 f          1 4LE      -0.234300
     10 F05          3.9480     1.1420     0.8400 f          1 4LE      -0.234300
     11 H1           1.8910    -0.8850    -0.5100 h2         1 4LE       0.110700
     12 H2           3.7100     0.0010     2.5070 h3         1 4LE       0.127700
@<TRIPOS>BOND
     1     5     1 1   
     2     7     1 1   
     3     9     4 1   
     4     6     1 1   
     5     1     2 1   
     6     4    10 1   
     7     4     3 1   
     8     3     2 1   
     9     2     8 1   
    10     2    11 1   
    11     4    12 1   
@<TRIPOS>SUBSTRUCTURE
     1 4LE         1 TEMP              0 ****  ****    0 ROOT
