@<TRIPOS>MOLECULE
4LE
   12    11     1     0     0
SMALL
bcc


@<TRIPOS>ATOM
      1 C01         0.1200   -0.0780   -0.0030 c3        1 4LE      0.634900
      2 C02         1.6300    0.3740   -0.1000 c3        1 4LE      0.203500
      3 O01         2.0880    0.4250    1.2360 os        1 4LE     -0.438600
      4 C03         3.3660   -0.1020    1.5260 c3        1 4LE      0.591700
      5 F01        -0.6970    0.7750    0.6800 f         1 4LE     -0.219633
      6 F02        -0.4610   -0.2480   -1.2320 f         1 4LE     -0.219633
      7 F03        -0.0110   -1.2900    0.6220 f         1 4LE     -0.219633
      8 Cl1         1.7750    1.9410   -0.8790 cl        1 4LE     -0.117400
      9 F04         3.3840   -1.4110    1.1410 f         1 4LE     -0.238800
     10 F05         4.2880    0.5140    0.7330 f         1 4LE     -0.238800
     11 H1          2.1950   -0.3700   -0.7200 h2        1 4LE      0.117700
     12 H2          3.5190    0.0600    2.6330 h3        1 4LE      0.144700
@<TRIPOS>BOND
     1    1    2 1   
     2    1    5 1   
     3    1    6 1   
     4    1    7 1   
     5    2    3 1   
     6    2    8 1   
     7    2   11 1   
     8    3    4 1   
     9    4    9 1   
    10    4   10 1   
    11    4   12 1   
@<TRIPOS>SUBSTRUCTURE
     1 4LE         1 TEMP              0 ****  ****    0 ROOT
