@<TRIPOS>MOLECULE
4LF
   32    33     1     0     0
SMALL
bcc


@<TRIPOS>ATOM
      1 N3           0.0000     0.0000     0.0000 ns         1 4LF      -0.205900
      2 C4           5.6310    -0.6720    -1.4430 cc         1 4LF      -0.151200
      3 C8           1.9740    -0.0010    -1.4430 c3         1 4LF       0.048000
      4 C5           5.6310     0.6720    -1.4530 cd         1 4LF      -0.151200
      5 C6           4.2140     1.0980    -1.4530 c          1 4LF       0.596200
      6 O3           3.8190     2.2460    -1.4600 o          1 4LF      -0.592500
      7 C7           4.2150    -1.1000    -1.4430 c          1 4LF       0.596200
      8 O2           3.8200    -2.2470    -1.4360 o          1 4LF      -0.592500
      9 N2           3.4390    -0.0010    -1.4440 n          1 4LF      -0.144400
     10 C9           1.4650     0.0000     0.0000 c3         1 4LF       0.031000
     11 C10         -0.6740     0.0000     1.1680 c          1 4LF       0.600700
     12 O4          -0.0650     0.0010     2.2200 o          1 4LF      -0.622100
     13 C11         -2.1490    -0.0010     1.1680 ca         1 4LF      -0.174600
     14 C12         -2.8520    -0.0010    -0.0400 ca         1 4LF      -0.082000
     15 C13         -4.2300    -0.0010    -0.0360 ca         1 4LF      -0.109000
     16 C14         -4.9260    -0.0010     1.1620 ca         1 4LF      -0.106000
     17 C15         -4.2440    -0.0010     2.3670 ca         1 4LF       0.062100
     18 O6          -4.9340    -0.0010     3.5380 oh         1 4LF      -0.493100
     19 C16         -2.8520    -0.0060     2.3780 ca         1 4LF       0.176100
     20 O5          -2.1800    -0.0060     3.5580 oh         1 4LF      -0.461100
     21 H1          -0.5000     0.0290    -0.8660 hn         1 4LF       0.178500
     22 H2           6.3620    -1.2180    -2.0280 ha         1 4LF       0.150000
     23 H4           1.6130     0.8840    -1.9540 h1         1 4LF       0.040200
     24 H5           1.6130    -0.8850    -1.9530 h1         1 4LF       0.040200
     25 H6           6.3610     1.2180    -0.8670 ha         1 4LF       0.150000
     26 H8           1.8260    -0.8840     0.5110 h1         1 4LF       0.037200
     27 H9           1.8260     0.8850     0.5100 h1         1 4LF       0.037200
     28 H10         -2.3130    -0.0010    -0.9800 ha         1 4LF       0.102000
     29 H11         -4.7710    -0.0020    -0.9740 ha         1 4LF       0.107000
     30 H12         -6.0090    -0.0010     1.1550 ha         1 4LF       0.113000
     31 H13         -5.3010     0.8540     3.6870 ho         1 4LF       0.409000
     32 H14         -2.2900    -0.8400     3.9830 ho         1 4LF       0.412000
@<TRIPOS>BOND
     1     1    10 1   
     2     1    11 1   
     3     1    21 1   
     4     2     4 2   
     5     2     7 1   
     6     2    22 1   
     7     3     9 1   
     8     3    10 1   
     9     3    23 1   
    10     3    24 1   
    11     4     5 1   
    12     4    25 1   
    13     5     6 2   
    14     5     9 1   
    15     7     8 2   
    16     7     9 1   
    17    10    26 1   
    18    10    27 1   
    19    11    12 2   
    20    11    13 1   
    21    13    14 ar  
    22    13    19 ar  
    23    14    15 ar  
    24    14    28 1   
    25    15    16 ar  
    26    15    29 1   
    27    16    17 ar  
    28    16    30 1   
    29    17    18 1   
    30    17    19 ar  
    31    18    31 1   
    32    19    20 1   
    33    20    32 1   
@<TRIPOS>SUBSTRUCTURE
     1 4LF         1 TEMP              0 ****  ****    0 ROOT
