@<TRIPOS>MOLECULE
molecule
   32    33     1     0     0
SMALL
bcc


@<TRIPOS>ATOM
      1 N3           0.0000     0.0000     0.0000 ns         1 4LF      -0.589900
      2 C4           5.6310    -0.6720    -1.4430 cc         1 4LF      -0.174700
      3 C8           1.9740    -0.0010    -1.4430 c3         1 4LF       0.098000
      4 C5           5.6310     0.6720    -1.4530 cd         1 4LF      -0.174700
      5 C6           4.2140     1.0980    -1.4530 c          1 4LF       0.671700
      6 O3           3.8190     2.2460    -1.4600 o          1 4LF      -0.558000
      7 C7           4.2150    -1.1000    -1.4430 c          1 4LF       0.671700
      8 O2           3.8200    -2.2470    -1.4360 o          1 4LF      -0.558000
      9 N2           3.4390    -0.0010    -1.4440 n          1 4LF      -0.505400
     10 C9           1.4650     0.0000     0.0000 c3         1 4LF       0.094000
     11 C10         -0.6740     0.0000     1.1680 c          1 4LF       0.676700
     12 O4          -0.0650     0.0010     2.2200 o          1 4LF      -0.576100
     13 C11         -2.1490    -0.0010     1.1680 ca         1 4LF      -0.157600
     14 C12         -2.8520    -0.0010    -0.0400 ca         1 4LF      -0.102000
     15 C13         -4.2300    -0.0010    -0.0360 ca         1 4LF      -0.136000
     16 C14         -4.9260    -0.0010     1.1620 ca         1 4LF      -0.127000
     17 C15         -4.2440    -0.0010     2.3670 ca         1 4LF       0.056100
     18 O6          -4.9340    -0.0010     3.5380 oh         1 4LF      -0.515100
     19 C16         -2.8520    -0.0060     2.3780 ca         1 4LF       0.159100
     20 O5          -2.1800    -0.0060     3.5580 oh         1 4LF      -0.484100
     21 H1          -0.5000     0.0290    -0.8660 hn         1 4LF       0.311500
     22 H2           6.3620    -1.2180    -2.0280 ha         1 4LF       0.185000
     23 H4           1.6130     0.8840    -1.9540 h1         1 4LF       0.072200
     24 H5           1.6130    -0.8850    -1.9530 h1         1 4LF       0.072200
     25 H6           6.3610     1.2180    -0.8670 ha         1 4LF       0.185000
     26 H8           1.8260    -0.8840     0.5110 h1         1 4LF       0.066200
     27 H9           1.8260     0.8850     0.5100 h1         1 4LF       0.066200
     28 H10         -2.3130    -0.0010    -0.9800 ha         1 4LF       0.129000
     29 H11         -4.7710    -0.0020    -0.9740 ha         1 4LF       0.138000
     30 H12         -6.0090    -0.0010     1.1550 ha         1 4LF       0.144000
     31 H13         -5.3010     0.8540     3.6870 ho         1 4LF       0.427000
     32 H14         -2.2900    -0.8400     3.9830 ho         1 4LF       0.434000
@<TRIPOS>BOND
     1    18    17 1
     2    17    16 ar
     3    17    19 ar
     4    20    19 1
     5    16    15 ar
     6    19    13 ar
     7    15    14 ar
     8    13    14 ar
     9    13    11 1
    10     1    10 1
    11     1    11 1
    12    10     3 1
    13    11    12 2
    14     8     7 2
    15     3     9 1
    16     7     2 1
    17     7     9 1
    18     2     4 2
    19     9     5 1
    20     5     4 1
    21     5     6 2
    22     1    21 1
    23     2    22 1
    24     3    23 1
    25     3    24 1
    26     4    25 1
    27    10    26 1
    28    10    27 1
    29    14    28 1
    30    15    29 1
    31    16    30 1
    32    18    31 1
    33    20    32 1
@<TRIPOS>SUBSTRUCTURE
     1 4LF         1 TEMP              0 ****  ****    0 ROOT
