@<TRIPOS>MOLECULE
molecule
   80    84     1     0     0
SMALL
bcc


@<TRIPOS>ATOM
      1 C1           0.0000     0.0000     0.0000 c3         1 4LG       0.106700
      2 O1           1.4290     0.0000     0.0000 os         1 4LG      -0.303900
      3 C2           1.8220     0.0000     1.3000 ca         1 4LG       0.118100
      4 C3           3.1730    -0.0110     1.6190 ca         1 4LG      -0.118300
      5 C4           4.2050    -0.0170     0.5220 c3         1 4LG       0.182700
      6 O2           5.5130    -0.0220     1.1000 os         1 4LG      -0.411600
      7 C5           0.8730    -0.0000     2.3140 ca         1 4LG      -0.223000
      8 C6           1.2750    -0.0010     3.6350 ca         1 4LG      -0.091000
      9 C7           2.6210    -0.0060     3.9500 ca         1 4LG      -0.165000
     10 C8           3.5690    -0.0110     2.9430 ca         1 4LG      -0.071000
     11 C9          11.8010    -3.6550    -5.2840 ca         1 4LG       0.137100
     12 C10         10.7200    -3.9410    -6.0960 ca         1 4LG      -0.180000
     13 C11          9.9840    -5.1010    -5.8830 ca         1 4LG       0.009800
     14 C12         10.3450    -5.9640    -4.8310 ca         1 4LG      -0.129800
     15 C13         11.4410    -5.6570    -4.0220 ca         1 4LG      -0.038000
     16 C14         12.1560    -4.5160    -4.2490 ca         1 4LG      -0.242000
     17 N1           8.8800    -5.6500    -6.4970 na         1 4LG      -0.067400
     18 C15          8.5400    -6.8250    -5.8810 cc         1 4LG      -0.097100
     19 C16          9.3850    -7.0710    -4.8680 cd         1 4LG      -0.179200
     20 C17          8.1780    -5.0660    -7.6440 c3         1 4LG       0.012300
     21 C18          8.8670    -5.4800    -8.9180 c          1 4LG       0.603100
     22 O3           8.3960    -5.0600   -10.1020 os         1 4LG      -0.443900
     23 O4           9.8440    -6.1900    -8.8740 o          1 4LG      -0.519000
     24 C19          9.0590    -5.4600   -11.3310 c3         1 4LG       0.148700
     25 C20         14.4140    -1.2480    -4.6970 c3         1 4LG       0.124700
     26 C21         14.9500    -1.2020    -6.1300 c3         1 4LG       0.128800
     27 N2          15.6050     0.0940    -6.3510 n7         1 4LG      -0.800200
     28 C22         14.5360     1.0950    -6.4380 c3         1 4LG       0.077800
     29 C23         13.6510     1.0200    -5.2270 c          1 4LG       0.711500
     30 N3          13.5980    -0.0620    -4.4400 n          1 4LG      -0.382000
     31 C24         13.5590    -2.5030    -4.5130 c3         1 4LG       0.099400
     32 O6          12.5230    -2.5230    -5.4960 os         1 4LG      -0.298900
     33 C25         13.2580    -0.0580    -2.0480 ca         1 4LG      -0.082000
     34 C26         12.7370    -0.0580    -3.3350 ca         1 4LG       0.012600
     35 C27         11.3620    -0.0460    -3.5260 ca         1 4LG      -0.082000
     36 C28         10.5130    -0.0470    -2.4370 ca         1 4LG      -0.187000
     37 C29         11.0350    -0.0480    -1.1510 ca         1 4LG       0.122100
     38 C30         12.4080    -0.0530    -0.9600 ca         1 4LG      -0.187000
     39 O7          10.1980    -0.0430    -0.0790 os         1 4LG      -0.295900
     40 C31          8.8660    -0.0380    -0.5940 c3         1 4LG       0.116400
     41 C32          7.8700    -0.0320     0.5670 c3         1 4LG      -0.089400
     42 C33          6.4430    -0.0270     0.0150 c3         1 4LG       0.129400
     43 H11         -0.3610    -0.8840     0.5110 h1         1 4LG       0.044033
     44 H12         -0.3610     0.8850     0.5100 h1         1 4LG       0.044033
     45 H13A        -0.3610    -0.0010    -1.0210 h1         1 4LG       0.044033
     46 H41          4.0780    -0.9020    -0.0900 h1         1 4LG       0.042200
     47 H42          4.0850     0.8670    -0.0920 h1         1 4LG       0.042200
     48 H5          -0.1820     0.0040     2.0680 ha         1 4LG       0.141000
     49 H6           0.5340     0.0010     4.4260 ha         1 4LG       0.129000
     50 H7           2.9340    -0.0060     4.9870 ha         1 4LG       0.132000
     51 H8           4.6230    -0.0170     3.1920 ha         1 4LG       0.155000
     52 H10         10.4500    -3.2660    -6.8990 ha         1 4LG       0.136000
     53 H13         11.7230    -6.3230    -3.2150 ha         1 4LG       0.134000
     54 H14         13.0060    -4.2800    -3.6200 ha         1 4LG       0.140000
     55 H15          7.7120    -7.4610    -6.1680 h4         1 4LG       0.166000
     56 H16          9.3610    -7.9260    -4.2040 ha         1 4LG       0.156000
     57 H171         8.1890    -3.9860    -7.5620 h1         1 4LG       0.089200
     58 H172         7.1540    -5.4170    -7.6570 h1         1 4LG       0.089200
     59 H191         8.5320    -5.0390   -12.1790 h1         1 4LG       0.050367
     60 H192        10.0800    -5.0970   -11.3250 h1         1 4LG       0.050367
     61 H193         9.0610    -6.5400   -11.4060 h1         1 4LG       0.050367
     62 H20         15.2460    -1.2680    -4.0040 h1         1 4LG       0.072700
     63 H211        15.6680    -2.0000    -6.2740 h1         1 4LG       0.054700
     64 H212        14.1280    -1.3150    -6.8270 h1         1 4LG       0.054700
     65 HN2         16.1100     0.0700    -7.2150 hn         1 4LG       0.360800
     66 H221        14.9760     2.0830    -6.4970 h1         1 4LG       0.067700
     67 H222        13.9430     0.9070    -7.3250 h1         1 4LG       0.067700
     68 H241        13.1180    -2.4970    -3.5230 h1         1 4LG       0.057200
     69 H242        14.1810    -3.3830    -4.6260 h1         1 4LG       0.057200
     70 H25         14.3310    -0.0620    -1.8970 ha         1 4LG       0.143000
     71 H27         10.9550    -0.0450    -4.5300 ha         1 4LG       0.143000
     72 H28          9.4400    -0.0400    -2.5870 ha         1 4LG       0.144500
     73 H30         12.8150    -0.0540     0.0440 ha         1 4LG       0.144500
     74 H311         8.7090    -0.9230    -1.1990 h1         1 4LG       0.043200
     75 H312         8.7160     0.8460    -1.2020 h1         1 4LG       0.043200
     76 H321         8.0260     0.8520     1.1720 hc         1 4LG       0.067200
     77 H322         8.0190    -0.9170     1.1750 hc         1 4LG       0.067200
     78 H331         6.2940     0.8570    -0.5930 h1         1 4LG       0.027200
     79 H332         6.2860    -0.9120    -0.5910 h1         1 4LG       0.027200
     80 O5          12.9560     1.9760    -4.9520 o          1 4LG      -0.635500
@<TRIPOS>BOND
     1     1     2 1
     2     1    43 1
     3     1    44 1
     4     1    45 1
     5     2     3 1
     6     3     4 ar
     7     3     7 ar
     8     4     5 1
     9     4    10 ar
    10     5     6 1
    11     5    46 1
    12     5    47 1
    13     6    42 1
    14     7     8 ar
    15     7    48 1
    16     8     9 ar
    17     8    49 1
    18     9    10 ar
    19     9    50 1
    20    10    51 1
    21    11    12 ar
    22    11    16 ar
    23    11    32 1
    24    12    13 ar
    25    12    52 1
    26    13    14 ar
    27    13    17 1
    28    14    15 ar
    29    14    19 1
    30    15    16 ar
    31    15    53 1
    32    16    54 1
    33    17    18 1
    34    17    20 1
    35    18    19 2
    36    18    55 1
    37    19    56 1
    38    20    21 1
    39    20    57 1
    40    20    58 1
    41    21    22 1
    42    21    23 2
    43    22    24 1
    44    24    59 1
    45    24    60 1
    46    24    61 1
    47    25    26 1
    48    25    30 1
    49    25    31 1
    50    25    62 1
    51    26    27 1
    52    26    63 1
    53    26    64 1
    54    27    28 1
    55    27    65 1
    56    28    29 1
    57    28    66 1
    58    28    67 1
    59    29    30 1
    60    29    80 2
    61    30    34 1
    62    31    32 1
    63    31    68 1
    64    31    69 1
    65    33    34 ar
    66    33    38 ar
    67    33    70 1
    68    34    35 ar
    69    35    36 ar
    70    35    71 1
    71    36    37 ar
    72    36    72 1
    73    37    38 ar
    74    37    39 1
    75    38    73 1
    76    39    40 1
    77    40    41 1
    78    40    74 1
    79    40    75 1
    80    41    42 1
    81    41    76 1
    82    41    77 1
    83    42    78 1
    84    42    79 1
@<TRIPOS>SUBSTRUCTURE
     1 4LG         1 TEMP              0 ****  ****    0 ROOT
