@<TRIPOS>MOLECULE
molecule
   66    69     1     0     0
SMALL
bcc


@<TRIPOS>ATOM
      1 C2           0.0000     0.0000     0.0000 ca         1 4LH       0.976900
      2 C4           2.0010     0.0000     1.1440 ca         1 4LH       0.775200
      3 C5           1.2940     0.0000     2.3500 ca         1 4LH      -0.351200
      4 C6          -0.0870     0.0060     2.3040 ca         1 4LH       0.534200
      5 CAP         11.4520    -4.0210    -0.3300 c2         1 4LH      -0.122000
      6 CAQ         10.2290    -3.8910     0.1750 ce         1 4LH      -0.255200
      7 CBE          9.5560    -2.5840     0.1430 c          1 4LH       0.663300
      8 OAE         10.1170    -1.6210    -0.3450 o          1 4LH      -0.600100
      9 CBH          7.6360    -1.2350     0.5360 ca         1 4LH       0.053600
     10 CAN          6.2710    -1.2220     0.2780 ca         1 4LH      -0.147000
     11 CAJ          8.3230    -0.0370     0.6810 ca         1 4LH      -0.113000
     12 CAH          7.6490     1.1630     0.5630 ca         1 4LH      -0.116000
     13 CAI          6.2920     1.1720     0.3020 ca         1 4LH      -0.128000
     14 CBF          5.6030    -0.0190     0.1620 ca         1 4LH      -0.106300
     15 CAV          4.1170    -0.0030    -0.1280 c3         1 4LH       0.289100
     16 NAZ          3.3860    -0.0010     1.1420 nu         1 4LH      -0.898900
     17 N3           1.3250     0.0000     0.0000 nb         1 4LH      -0.858000
     18 Cl5          2.1310    -0.0000     3.8700 cl         1 4LH      -0.110400
     19 N1          -0.6960     0.0060     1.1260 nb         1 4LH      -0.827000
     20 NBB         -0.6740     0.0010    -1.2100 nu         1 4LH      -0.736300
     21 CBK         -2.0720     0.1360    -1.2350 ca         1 4LH       0.109600
     22 CBL         -2.8050    -0.4000    -2.2920 ca         1 4LH       0.126100
     23 CAO         -4.1820    -0.2650    -2.3140 ca         1 4LH      -0.228000
     24 OBC         -2.1680    -1.0530    -3.3010 os         1 4LH      -0.336900
     25 CAA         -2.9830    -1.5760    -4.3510 c3         1 4LH       0.131700
     26 CAL         -2.7220     0.7980    -0.2060 ca         1 4LH      -0.077000
     27 CAK         -4.0980     0.9260    -0.2270 ca         1 4LH      -0.202000
     28 CBI         -4.8310     0.4020    -1.2830 ca         1 4LH       0.122600
     29 NBP         -6.2230     0.5340    -1.3030 nh         1 4LH      -0.598000
     30 CAT         -6.7000     1.2560    -0.1150 c3         1 4LH       0.165800
     31 CAR         -8.2300     1.3090    -0.1330 c3         1 4LH       0.159800
     32 NBO         -8.6790     1.9740    -1.3660 n3         1 4LH      -0.733600
     33 CAB        -10.1410     2.1120    -1.3850 c3         1 4LH       0.153100
     34 CAS         -8.2020     1.2520    -2.5530 c3         1 4LH       0.159800
     35 CAU         -6.6730     1.1990    -2.5340 c3         1 4LH       0.165800
     36 H1          -0.6650     0.0090     3.2200 h4         1 4LH       0.037100
     37 H2          11.9480    -4.9840    -0.3070 ha         1 4LH       0.131500
     38 H3          11.9530    -3.1650    -0.7650 ha         1 4LH       0.131500
     39 H5           9.7280    -4.7470     0.6100 ha         1 4LH       0.128000
     40 H7           7.8390    -3.2540     1.0180 hn         1 4LH       0.324500
     41 H8           5.7310    -2.1550     0.1690 ha         1 4LH       0.134000
     42 H9           9.3870    -0.0430     0.8860 ha         1 4LH       0.163000
     43 H10          8.1850     2.0980     0.6740 ha         1 4LH       0.137000
     44 H11          5.7650     2.1150     0.2100 ha         1 4LH       0.135000
     45 H12          3.8680     0.8910    -0.6870 h1         1 4LH       0.059200
     46 H13          3.8530    -0.8770    -0.7100 h1         1 4LH       0.059200
     47 H14          3.8880     0.0170     2.0080 hn         1 4LH       0.464800
     48 H15         -0.1620    -0.0600    -2.0680 hn         1 4LH       0.474800
     49 H16         -4.7540    -0.6770    -3.1370 ha         1 4LH       0.143000
     50 H17         -3.4990    -0.7630    -4.8470 h1         1 4LH       0.041700
     51 H18         -3.7080    -2.2650    -3.9370 h1         1 4LH       0.041700
     52 H19         -2.3580    -2.0970    -5.0670 h1         1 4LH       0.041700
     53 H20         -2.1520     1.2070     0.6200 ha         1 4LH       0.175000
     54 H21         -4.6050     1.4450     0.5780 ha         1 4LH       0.140000
     55 H22         -6.3690     0.7400     0.7780 h1         1 4LH       0.049700
     56 H23         -6.3050     2.2650    -0.1230 h1         1 4LH       0.049700
     57 H24         -8.5810     1.8670     0.7260 h1         1 4LH       0.042450
     58 H25         -8.6260     0.3010    -0.1030 h1         1 4LH       0.042450
     59 H27        -10.4630     2.6750    -0.5180 h1         1 4LH       0.033033
     60 H28        -10.5970     1.1290    -1.3670 h1         1 4LH       0.033033
     61 H29        -10.4430     2.6320    -2.2860 h1         1 4LH       0.033033
     62 H30         -8.5970     0.2430    -2.5440 h1         1 4LH       0.042450
     63 H31         -8.5340     1.7680    -3.4460 h1         1 4LH       0.042450
     64 H32         -6.2770     2.2070    -2.5640 h1         1 4LH       0.049700
     65 H33         -6.3210     0.6410    -3.3940 h1         1 4LH       0.049700
     66 NBA          8.3150    -2.4510     0.6550 ns         1 4LH      -0.473100
@<TRIPOS>BOND
     1     5     6 2
     2     6     7 1
     3    66     7 1
     4    66     9 1
     5    11     9 ar
     6    11    12 ar
     7     7     8 2
     8     9    10 ar
     9    12    13 ar
    10    10    14 ar
    11    13    14 ar
    12    14    15 1
    13    34    35 1
    14    34    32 1
    15    35    29 1
    16    30    29 1
    17    30    31 1
    18    32    31 1
    19    32    33 1
    20    15    16 1
    21    29    28 1
    22    27    28 ar
    23    27    26 ar
    24    28    23 ar
    25    26    21 ar
    26    16     2 1
    27     2    17 ar
    28     2     3 ar
    29    17     1 ar
    30    18     3 1
    31    23    22 ar
    32    21    22 ar
    33    21    20 1
    34     3     4 ar
    35     1    20 1
    36     1    19 ar
    37    22    24 1
    38     4    19 ar
    39    24    25 1
    40     4    36 1
    41     5    37 1
    42     5    38 1
    43     6    39 1
    44    66    40 1
    45    10    41 1
    46    11    42 1
    47    12    43 1
    48    13    44 1
    49    15    45 1
    50    15    46 1
    51    16    47 1
    52    20    48 1
    53    23    49 1
    54    25    50 1
    55    25    51 1
    56    25    52 1
    57    26    53 1
    58    27    54 1
    59    30    55 1
    60    30    56 1
    61    31    57 1
    62    31    58 1
    63    33    59 1
    64    33    60 1
    65    33    61 1
    66    34    62 1
    67    34    63 1
    68    35    64 1
    69    35    65 1
@<TRIPOS>SUBSTRUCTURE
     1 4LH         1 TEMP              0 ****  ****    0 ROOT
