@<TRIPOS>MOLECULE
4LH
   66    69     1     0     0
SMALL
bcc


@<TRIPOS>ATOM
      1 C2           0.0000     0.0000     0.0000 ca         1 4LH       0.743900
      2 C4           2.0010     0.0000     1.1440 ca         1 4LH       0.595200
      3 C5           1.2940     0.0000     2.3500 ca         1 4LH      -0.429200
      4 C6          -0.0870     0.0060     2.3040 ca         1 4LH       0.533200
      5 CAP         11.4520    -4.0210    -0.3300 c2         1 4LH      -0.047000
      6 CAQ         10.2290    -3.8910     0.1750 ce         1 4LH      -0.250200
      7 CBE          9.5560    -2.5840     0.1430 c          1 4LH       0.572300
      8 OAE         10.1170    -1.6210    -0.3450 o          1 4LH      -0.640100
      9 CBH          7.6360    -1.2350     0.5360 ca         1 4LH      -0.090400
     10 CAN          6.2710    -1.2220     0.2780 ca         1 4LH      -0.118000
     11 CAJ          8.3230    -0.0370     0.6810 ca         1 4LH      -0.088000
     12 CAH          7.6490     1.1630     0.5630 ca         1 4LH      -0.083000
     13 CAI          6.2920     1.1720     0.3020 ca         1 4LH      -0.098000
     14 CBF          5.6030    -0.0190     0.1620 ca         1 4LH      -0.111300
     15 CAV          4.1170    -0.0030    -0.1280 c3         1 4LH       0.228100
     16 NAZ          3.3860    -0.0010     1.1420 nu         1 4LH      -0.493900
     17 N3           1.3250     0.0000     0.0000 nb         1 4LH      -0.763000
     18 Cl5          2.1310    -0.0000     3.8700 cl         1 4LH      -0.012400
     19 N1          -0.6960     0.0060     1.1260 nb         1 4LH      -0.739000
     20 NBB         -0.6740     0.0010    -1.2100 nu         1 4LH      -0.259300
     21 CBK         -2.0720     0.1360    -1.2350 ca         1 4LH      -0.058400
     22 CBL         -2.8050    -0.4000    -2.2920 ca         1 4LH       0.141100
     23 CAO         -4.1820    -0.2650    -2.3140 ca         1 4LH      -0.221000
     24 OBC         -2.1680    -1.0530    -3.3010 os         1 4LH      -0.316900
     25 CAA         -2.9830    -1.5760    -4.3510 c3         1 4LH       0.248700
     26 CAL         -2.7220     0.7980    -0.2060 ca         1 4LH      -0.058000
     27 CAK         -4.0980     0.9260    -0.2270 ca         1 4LH      -0.185000
     28 CBI         -4.8310     0.4020    -1.2830 ca         1 4LH       0.047600
     29 NBP         -6.2230     0.5340    -1.3030 nh         1 4LH      -0.365000
     30 CAT         -6.7000     1.2560    -0.1150 c3         1 4LH       0.136300
     31 CAR         -8.2300     1.3090    -0.1330 c3         1 4LH       0.152800
     32 NBO         -8.6790     1.9740    -1.3660 n3         1 4LH      -0.549600
     33 CAB        -10.1410     2.1120    -1.3850 c3         1 4LH       0.189100
     34 CAS         -8.2020     1.2520    -2.5530 c3         1 4LH       0.152800
     35 CAU         -6.6730     1.1990    -2.5340 c3         1 4LH       0.136300
     36 H1          -0.6650     0.0090     3.2200 h4         1 4LH      -0.013900
     37 H2          11.9530    -3.1650    -0.7650 ha         1 4LH       0.092500
     38 H3          11.9480    -4.9840    -0.3070 ha         1 4LH       0.092500
     39 H5           9.7280    -4.7470     0.6100 ha         1 4LH       0.105000
     40 H7           7.8390    -3.2540     1.0180 hn         1 4LH       0.166500
     41 H8           5.7310    -2.1550     0.1690 ha         1 4LH       0.110000
     42 H9           9.3870    -0.0430     0.8860 ha         1 4LH       0.141000
     43 H10          8.1850     2.0980     0.6740 ha         1 4LH       0.107000
     44 H11          5.7650     2.1150     0.2100 ha         1 4LH       0.109000
     45 H12          3.8680     0.8910    -0.6870 h1         1 4LH       0.029200
     46 H13          3.8530    -0.8770    -0.7100 h1         1 4LH       0.029200
     47 H14          3.8880     0.0170     2.0080 hn         1 4LH       0.308800
     48 H15         -0.1620    -0.0600    -2.0680 hn         1 4LH       0.296800
     49 H16         -4.7540    -0.6770    -3.1370 ha         1 4LH       0.130000
     50 H17         -2.3580    -2.0970    -5.0670 h1         1 4LH      -0.001967
     51 H18         -3.4990    -0.7630    -4.8470 h1         1 4LH      -0.001967
     52 H19         -3.7080    -2.2650    -3.9370 h1         1 4LH      -0.001967
     53 H20         -2.1520     1.2070     0.6200 ha         1 4LH       0.151000
     54 H21         -4.6050     1.4450     0.5780 ha         1 4LH       0.125000
     55 H22         -6.3690     0.7400     0.7780 h1         1 4LH       0.024200
     56 H23         -6.3050     2.2650    -0.1230 h1         1 4LH       0.024200
     57 H24         -8.5810     1.8670     0.7260 h1         1 4LH       0.014700
     58 H25         -8.6260     0.3010    -0.1030 h1         1 4LH       0.014700
     59 H27        -10.4630     2.6750    -0.5180 h1         1 4LH       0.000033
     60 H28        -10.4430     2.6330    -2.2860 h1         1 4LH       0.000033
     61 H29        -10.5970     1.1290    -1.3670 h1         1 4LH       0.000033
     62 H30         -8.5340     1.7680    -3.4460 h1         1 4LH       0.014700
     63 H31         -8.5970     0.2430    -2.5440 h1         1 4LH       0.014700
     64 H32         -6.3210     0.6410    -3.3940 h1         1 4LH       0.024200
     65 H33         -6.2770     2.2070    -2.5640 h1         1 4LH       0.024200
     66 NBA          8.3150    -2.4510     0.6550 ns         1 4LH      -0.029100
@<TRIPOS>BOND
     1     1    17 ar  
     2     1    19 ar  
     3     1    20 1   
     4     2     3 ar  
     5     2    16 1   
     6     2    17 ar  
     7     3     4 ar  
     8     3    18 1   
     9     4    19 ar  
    10     4    36 1   
    11     5     6 2   
    12     5    37 1   
    13     5    38 1   
    14     6     7 1   
    15     6    39 1   
    16     7     8 2   
    17     7    66 1   
    18     9    10 ar  
    19     9    11 ar  
    20     9    66 1   
    21    10    14 ar  
    22    10    41 1   
    23    11    12 ar  
    24    11    42 1   
    25    12    13 ar  
    26    12    43 1   
    27    13    14 ar  
    28    13    44 1   
    29    14    15 1   
    30    15    16 1   
    31    15    45 1   
    32    15    46 1   
    33    16    47 1   
    34    20    21 1   
    35    20    48 1   
    36    21    22 ar  
    37    21    26 ar  
    38    22    23 ar  
    39    22    24 1   
    40    23    28 ar  
    41    23    49 1   
    42    24    25 1   
    43    25    50 1   
    44    25    51 1   
    45    25    52 1   
    46    26    27 ar  
    47    26    53 1   
    48    27    28 ar  
    49    27    54 1   
    50    28    29 1   
    51    29    30 1   
    52    29    35 1   
    53    30    31 1   
    54    30    55 1   
    55    30    56 1   
    56    31    32 1   
    57    31    57 1   
    58    31    58 1   
    59    32    33 1   
    60    32    34 1   
    61    33    59 1   
    62    33    60 1   
    63    33    61 1   
    64    34    35 1   
    65    34    62 1   
    66    34    63 1   
    67    35    64 1   
    68    35    65 1   
    69    40    66 1   
@<TRIPOS>SUBSTRUCTURE
     1 4LH         1 TEMP              0 ****  ****    0 ROOT
