@<TRIPOS>MOLECULE
molecule
   72    76     1     0     0
SMALL
bcc


@<TRIPOS>ATOM
      1 C1           0.0000     0.0000     0.0000 ca         1 4LI      -0.123000
      2 C2           1.3820     0.0000     0.0000 ca         1 4LI      -0.123000
      3 C3          -0.9720     4.7710     8.7160 ca         1 4LI      -0.134000
      4 C4          -0.7090     3.7990     9.6570 ca         1 4LI      -0.105000
      5 C5          -2.1760     4.7720     8.0280 ca         1 4LI      -0.101000
      6 C6          -0.6930    -0.0000     1.1950 ca         1 4LI      -0.153000
      7 C7           2.0770     0.0000     1.1960 ca         1 4LI      -0.123000
      8 C8          -1.6590     2.8100     9.9200 ca         1 4LI      -0.170600
      9 C9          -3.1230     3.8000     8.2770 ca         1 4LI      -0.079300
     10 C10          0.0010    -0.0010     2.3980 ca         1 4LI       0.088600
     11 C11         -2.8760     2.8120     9.2220 ca         1 4LI       0.214600
     12 C12          1.3910    -0.0000     2.3950 ca         1 4LI       0.051400
     13 C13         -3.7160    -0.0400     6.4410 ca         1 4LI       0.930900
     14 C14         -5.3040    -0.9670     7.8270 ca         1 4LI       0.799900
     15 C15         -4.1080     0.8760     8.5160 ca         1 4LI       1.002900
     16 C17         -6.4340    -4.5080     8.9930 c          1 4LI       0.660100
     17 C18         -1.5550     1.1870     3.7230 c3         1 4LI       0.166300
     18 C19         -1.4850    -1.2320     3.7620 c3         1 4LI       0.166300
     19 C20         -2.2390     1.1900     5.0920 c3         1 4LI       0.175300
     20 C21         -2.1690    -1.2290     5.1310 c3         1 4LI       0.175300
     21 C22         -8.4690    -3.0900     9.0630 c3         1 4LI       0.007700
     22 C23         -7.4760    -2.4250     6.6500 c3         1 4LI       0.226900
     23 C24         -6.9260    -3.0840     8.9750 c3         1 4LI       0.011500
     24 C25         -4.4280     3.8100     7.5230 c3         1 4LI      -0.048800
     25 C26         -0.4670     1.4030    12.9590 c3         1 4LI       0.068300
     26 C27         -6.2040    -6.6780    10.0790 c3         1 4LI       0.105300
     27 N28         -4.6440    -0.9640     6.6720 nb         1 4LI      -0.823000
     28 N29         -3.4480     0.8790     7.3620 nb         1 4LI      -0.891000
     29 N30         -5.0360    -0.0470     8.7480 nb         1 4LI      -0.856000
     30 N31         -0.6980    -0.0010     3.6090 nh         1 4LI      -0.615000
     31 N32         -3.0270    -0.0400     5.2450 nh         1 4LI      -0.692300
     32 N33         -6.4280    -2.7320     7.6490 nh         1 4LI      -0.442300
     33 N34         -3.8300     1.8320     9.4740 nu         1 4LI      -0.751300
     34 N35         -0.1940     1.7380    11.5590 ns         1 4LI      -0.539900
     35 N36         -6.6820    -5.2940    10.0610 ns         1 4LI      -0.593900
     36 O37         -2.2300     0.9320    11.1840 o          1 4LI      -0.578100
     37 O38         -5.8150    -4.9480     8.0480 o          1 4LI      -0.553100
     38 S39         -8.9330    -3.3450     7.2980 ss         1 4LI      -0.354200
     39 Cl40         2.2630    -0.0010     3.8960 cl         1 4LI      -0.091400
     40 H1          -0.5410     0.0000    -0.9390 ha         1 4LI       0.133000
     41 H2           1.9230     0.0000    -0.9390 ha         1 4LI       0.135000
     42 H3          -0.2350     5.5380     8.5120 ha         1 4LI       0.134000
     43 H4           0.2330     3.8030    10.1920 ha         1 4LI       0.126000
     44 H5          -2.3740     5.5400     7.2900 ha         1 4LI       0.136000
     45 H6          -1.7760    -0.0010     1.1940 ha         1 4LI       0.142000
     46 H7           3.1600     0.0000     1.1930 ha         1 4LI       0.144000
     47 H18         -2.3070     1.1640     2.9440 h1         1 4LI       0.048200
     48 H18A        -0.9490     2.0790     3.6210 h1         1 4LI       0.048200
     49 H19         -0.8300    -2.0910     3.6890 h1         1 4LI       0.048200
     50 H19A        -2.2380    -1.2770     2.9840 h1         1 4LI       0.048200
     51 H20         -2.8950     2.0500     5.1640 h1         1 4LI       0.065200
     52 H20A        -1.4870     1.2360     5.8700 h1         1 4LI       0.065200
     53 H21         -2.7750    -2.1210     5.2330 h1         1 4LI       0.065200
     54 H21A        -1.4160    -1.2060     5.9100 h1         1 4LI       0.065200
     55 H22         -8.8300    -4.0300     9.4620 h1         1 4LI       0.087700
     56 H22A        -8.8260    -2.2490     9.6450 h1         1 4LI       0.087700
     57 H23         -7.7820    -1.3880     6.7230 h2         1 4LI       0.108700
     58 H23A        -7.1330    -2.6630     5.6500 h2         1 4LI       0.108700
     59 H24         -6.4480    -2.5370     9.7780 h1         1 4LI       0.129700
     60 H25         -4.3450     3.1750     6.6490 hc         1 4LI       0.049700
     61 H25A        -5.2190     3.4410     8.1640 hc         1 4LI       0.049700
     62 H25B        -4.6570     4.8230     7.2130 hc         1 4LI       0.049700
     63 H26          0.1550     2.0130    13.6040 h1         1 4LI       0.044700
     64 H26A        -1.5100     1.5930    13.1790 h1         1 4LI       0.044700
     65 H26B        -0.2460     0.3560    13.1300 h1         1 4LI       0.044700
     66 H27         -5.1250    -6.6890     9.9800 h1         1 4LI       0.043700
     67 H27A        -6.6480    -7.2250     9.2560 h1         1 4LI       0.043700
     68 H27B        -6.4850    -7.1450    11.0160 h1         1 4LI       0.043700
     69 HN34        -4.3340     1.8360    10.3380 hn         1 4LI       0.480800
     70 HN35         0.5090     2.4140    11.3340 hn         1 4LI       0.305500
     71 HN36        -7.1720    -4.9230    10.8510 hn         1 4LI       0.309500
     72 C16         -1.3830     1.7670    10.9260 c          1 4LI       0.654700
@<TRIPOS>BOND
     1     1     2 ar  
     2     1     6 ar  
     3     2     7 ar  
     4     3     4 ar  
     5     3     5 ar  
     6     4     8 ar  
     7     5     9 ar  
     8     6    10 ar  
     9     7    12 ar  
    10     8    11 ar  
    11     8    72 1   
    12     9    11 ar  
    13     9    24 1   
    14    10    12 ar  
    15    10    30 1   
    16    11    33 1   
    17    12    39 1   
    18    13    27 ar  
    19    13    28 ar  
    20    13    31 1   
    21    14    27 ar  
    22    14    29 ar  
    23    14    32 1   
    24    15    28 ar  
    25    15    29 ar  
    26    15    33 1   
    27    72    34 1   
    28    72    36 2   
    29    16    23 1   
    30    16    35 1   
    31    16    37 2   
    32    17    19 1   
    33    17    30 1   
    34    18    20 1   
    35    18    30 1   
    36    19    31 1   
    37    20    31 1   
    38    21    23 1   
    39    21    38 1   
    40    22    32 1   
    41    22    38 1   
    42    23    32 1   
    43    25    34 1   
    44    26    35 1   
    45     1    40 1   
    46     2    41 1   
    47     3    42 1   
    48     4    43 1   
    49     5    44 1   
    50     6    45 1   
    51     7    46 1   
    52    17    47 1   
    53    17    48 1   
    54    18    49 1   
    55    18    50 1   
    56    19    51 1   
    57    19    52 1   
    58    20    53 1   
    59    20    54 1   
    60    21    55 1   
    61    21    56 1   
    62    22    57 1   
    63    22    58 1   
    64    23    59 1   
    65    24    60 1   
    66    24    61 1   
    67    24    62 1   
    68    25    63 1   
    69    25    64 1   
    70    25    65 1   
    71    26    66 1   
    72    26    67 1   
    73    26    68 1   
    74    33    69 1   
    75    34    70 1   
    76    35    71 1   
@<TRIPOS>SUBSTRUCTURE
     1 4LI         1 TEMP              0 ****  ****    0 ROOT
