@<TRIPOS>MOLECULE
4LI
   75    73     1     0     0
SMALL
bcc


@<TRIPOS>ATOM
      1 C1        449.7290   35.0230 -705.1350 c1        1 4LI     -0.243000
      2 C2        448.8490   34.5850 -706.1200 c2        1 4LI      0.077000
      3 C3        -96.4670   -3.0000  159.9310 c3        1 4LI     -0.224000
      4 C4        -97.0270   -3.9420  160.9120 c2        1 4LI     -0.009000
      5 C5        -96.7640   -3.2600  158.5340 c1        1 4LI     -0.068000
      6 C6        450.4810   35.3770 -704.2690 c1        1 4LI      0.056000
      7 C7        448.5510   35.2030 -707.2240 c1        1 4LI      0.240000
      8 C8        -97.7390   -5.0420  160.5320 c2        1 4LI     -0.265000
      9 C9        -97.5070   -4.4040  158.1670 c2        1 4LI     -0.197000
     10 C10       448.0270   37.3370 -708.3490 c2        1 4LI     -0.032000
     11 C11       -97.9150   -5.3510  159.1050 c2        1 4LI      0.165000
     12 C12       448.1730   35.8100 -708.4420 c3        1 4LI     -0.085000
     13 C13       -96.1640   -8.3850  156.6200 c2        1 4LI     -0.262000
     14 C14       -98.1700   -8.2900  155.4850 c2        1 4LI     -0.117000
     15 C15       -97.9510   -7.3290  157.6760 c2        1 4LI      0.069000
     16 C17       -99.8970  -10.7480  153.4420 c2        1 4LI      0.290000
     17 C18       -92.5920   -9.1770  157.6250 c3        1 4LI     -0.236000
     18 C19       -92.8630  -10.0110  154.1480 c1        1 4LI     -0.226000
     19 C20       -93.9870   -8.6750  157.6450 c2        1 4LI     -0.015000
     20 C21       -93.7130  -10.8530  154.1390 c1        1 4LI     -0.226000
     21 C22       -97.0150   -6.8230  151.2880 c2        1 4LI     -0.831000
     22 C23       -98.7560   -8.0030  153.1530 c2        1 4LI     -0.292000
     23 C24       -99.9860   -9.6170  154.4930 c3        1 4LI     -0.115000
     24 C26      -101.7440   -7.4630  163.0060 c2        1 4LI      0.114000
     25 C27      -100.5450  -13.0470  152.8690 c3        1 4LI     -0.090000
     26 N28       -96.8960   -8.6620  155.4720 n2        1 4LI     -0.046000
     27 N29       -96.6820   -7.6870  157.7360 n2        1 4LI     -0.117000
     28 N30       -98.8940   -7.6920  156.6080 na        1 4LI     -0.192000
     29 N31       448.3550   37.9570 -707.2910 n2        1 4LI     -0.218000
     30 N32       -94.8300   -8.8490  156.6550 nh        1 4LI      0.043000
     31 N33       -98.9740   -8.5760  154.3000 nh        1 4LI      0.046000
     32 N34       -98.5420   -6.5500  158.7420 nh        1 4LI     -0.235000
     33 N35      -102.1950   -6.6910  162.0730 n3        1 4LI     -0.135000
     34 N36      -100.4960  -11.9300  153.7700 n         1 4LI     -0.347000
     35 O37       -99.3880   -6.4950  161.5240 o         1 4LI     -0.426000
     36 O38       -99.3220  -10.5490  152.3520 o         1 4LI     -0.370000
     37 S39       -97.6270   -6.6990  152.6560 s4        1 4LI      1.226000
     38 CL40      449.2500   35.4060 -709.7620 cl        1 4LI      0.038000
     39 H1        451.1510   35.6880 -703.4960 ha        1 4LI      0.270000
     40 H2        448.3480   33.5900 -705.9230 ha        1 4LI      0.270000
     41 H3        -95.3370   -2.9630  160.0340 hc        1 4LI      0.192500
     42 H4        -96.8740   -3.7100  161.9820 ha        1 4LI      0.144000
     43 H5        -96.8120   -1.9450  160.1670 hc        1 4LI      0.192500
     44 H6        447.6360   37.7440 -709.3070 h4        1 4LI      0.172000
     45 H7        447.1390   35.4090 -708.7250 h1        1 4LI      0.237000
     46 H18       -91.8970   -8.3210  157.8320 hc        1 4LI      0.131000
     47 H18A      -92.4670   -9.9340  158.4440 hc        1 4LI      0.131000
     48 H19       448.2530   38.9520 -707.2710 hn        1 4LI      0.217000
     49 H19A      -92.0880   -9.2840  154.1180 ha        1 4LI      0.231500
     50 H20       -92.2950   -9.6510  156.6550 hc        1 4LI      0.131000
     51 H20A      -94.3100   -8.1280  158.5560 h4        1 4LI      0.197000
     52 H21       -94.4520  -11.6170  154.1090 ha        1 4LI      0.231500
     53 H21A      -94.5250   -9.3470  155.8210 hn        1 4LI      0.281000
     54 H22       -97.6270   -6.9290  150.3750 h4        1 4LI      0.195500
     55 H22A      -99.8740  -10.0370  155.5340 h1        1 4LI      0.152500
     56 H23       -96.6280   -6.7420  153.4870 hs        1 4LI     -0.134000
     57 H23A      -99.4010   -8.3360  152.3010 h5        1 4LI      0.204000
     58 H24      -101.0050   -9.1410  154.3980 h1        1 4LI      0.152500
     59 H25       -97.2070   -5.3480  156.2510 hc        1 4LI      0.082333
     60 H25A      -98.8980   -4.7490  156.5620 hc        1 4LI      0.082333
     61 H25B      -97.5620   -3.5740  156.1990 hc        1 4LI      0.082333
     62 H26      -101.5750   -6.2960  161.3740 hn        1 4LI      0.293500
     63 H26A     -103.1680   -6.4400  161.9930 hn        1 4LI      0.293500
     64 H26B     -102.4210   -7.8960  163.7780 h4        1 4LI      0.214000
     65 H27      -101.6140  -13.2910  152.6280 h1        1 4LI      0.106333
     66 H27A     -100.0650  -13.9390  153.3550 h1        1 4LI      0.106333
     67 H27B      -99.9980  -12.8070  151.9180 h1        1 4LI      0.106333
     68 HN34      -98.8340   -7.1390  159.4990 hn        1 4LI      0.224000
     69 HN35     -100.6540   -7.7040  163.0500 h4        1 4LI      0.214000
     70 HN36      -95.9530   -6.8610  151.0070 h4        1 4LI      0.195500
     71 C16       -98.3250   -5.8540  161.6030 c2        1 4LI      0.279000
     72 H342      -99.3880   -6.8640  156.3010 hn        1 4LI      0.174000
     73 H352      -97.7610   -5.8400  162.5680 h4        1 4LI      0.118000
     74 H362     -100.9440  -12.0300  154.6500 hn        1 4LI      0.235000
     75 C25       -97.8120   -4.5330  156.7210 c3        1 4LI     -0.156000
@<TRIPOS>BOND
     1    1    2 1   
     2    1    6 1   
     3    2    7 1   
     4    2   40 1   
     5    3    4 1   
     6    3    5 1   
     7    3   41 1   
     8    3   43 1   
     9    4    8 1   
    10    4   42 1   
    11    5    9 1   
    12    6   39 1   
    13    7   12 1   
    14    8   11 1   
    15    8   71 1   
    16    9   11 1   
    17    9   75 1   
    18   10   12 1   
    19   10   29 1   
    20   10   44 1   
    21   11   32 1   
    22   12   38 1   
    23   12   45 1   
    24   13   26 1   
    25   13   27 1   
    26   13   30 1   
    27   14   26 1   
    28   14   28 1   
    29   14   31 1   
    30   15   27 1   
    31   15   28 1   
    32   15   32 1   
    33   16   23 1   
    34   16   34 1   
    35   16   36 1   
    36   17   19 1   
    37   17   46 1   
    38   17   47 1   
    39   17   50 1   
    40   18   20 1   
    41   18   49 1   
    42   19   30 1   
    43   19   51 1   
    44   20   52 1   
    45   21   37 1   
    46   21   54 1   
    47   21   70 1   
    48   22   31 1   
    49   22   37 1   
    50   22   57 1   
    51   23   31 1   
    52   23   55 1   
    53   23   58 1   
    54   24   33 1   
    55   24   64 1   
    56   24   69 1   
    57   25   34 1   
    58   25   65 1   
    59   25   66 1   
    60   25   67 1   
    61   28   72 1   
    62   29   48 1   
    63   30   53 1   
    64   32   68 1   
    65   33   62 1   
    66   33   63 1   
    67   34   74 1   
    68   35   71 1   
    69   37   56 1   
    70   59   75 1   
    71   60   75 1   
    72   61   75 1   
    73   71   73 1   
@<TRIPOS>SUBSTRUCTURE
     1 4LI         1 TEMP              0 ****  ****    0 ROOT
