@<TRIPOS>MOLECULE
molecule
   14    13     1     0     0
SMALL
bcc


@<TRIPOS>ATOM
      1 Br           0.0000     0.0000     0.0000 br         1 4LJ      -0.087400
      2 C1           1.9650     0.0000     0.0000 c3         1 4LJ      -0.018000
      3 C2           2.4750     0.0000     1.4420 c3         1 4LJ      -0.112400
      4 C3           4.0050    -0.0000     1.4420 c3         1 4LJ       0.089800
      5 N1           4.4950    -0.0000     2.8280 nz         1 4LJ      -0.810600
      6 H1           2.3260     0.8850    -0.5110 h1         1 4LJ       0.086700
      7 H2           2.3260    -0.8850    -0.5110 h1         1 4LJ       0.086700
      8 H3           2.1140    -0.8840     1.9530 hc         1 4LJ       0.078700
      9 H4           2.1140     0.8850     1.9530 hc         1 4LJ       0.078700
     10 H5           4.3660    -0.8850     0.9320 hx         1 4LJ       0.114700
     11 H6           4.3670     0.8840     0.9320 hx         1 4LJ       0.114700
     12 H7           5.4960    -0.0000     2.8280 hn         1 4LJ       0.459800
     13 H8           4.1610     0.8170     3.3000 hn         1 4LJ       0.459800
     14 H13          4.1610    -0.8170     3.3000 hn         1 4LJ       0.459800
@<TRIPOS>BOND
     1     1     2 1   
     2     2     3 1   
     3     3     4 1   
     4     4     5 1   
     5     2     6 1   
     6     2     7 1   
     7     3     8 1   
     8     3     9 1   
     9     4    10 1   
    10     4    11 1   
    11     5    12 1   
    12     5    13 1   
    13    14     5 1   
@<TRIPOS>SUBSTRUCTURE
     1 4LJ         1 TEMP              0 ****  ****    0 ROOT
