@<TRIPOS>MOLECULE
4LK
   51    55     1     0     0
SMALL
bcc


@<TRIPOS>ATOM
      1 C25          0.0000     0.0000     0.0000 ca         1 4LK      -0.095000
      2 C24          1.3830     0.0000     0.0000 ca         1 4LK      -0.090500
      3 C26         -0.6940    -0.0000     1.1950 ca         1 4LK      -0.090500
      4 C23          2.0750     0.0000     1.1960 ca         1 4LK      -0.088500
      5 C27         -0.0090    -0.0010     2.3940 ca         1 4LK      -0.088500
      6 C5          -4.1730     1.0060     7.8700 ca         1 4LK      -0.173000
      7 C6          -3.3030     1.2580     6.8300 ca         1 4LK      -0.013000
      8 C18          2.7010     0.4260     5.6860 cc         1 4LK      -0.305300
      9 C3          -2.7520     2.2440     9.3650 ca         1 4LK      -0.189000
     10 C19          3.5950    -0.4900     5.1330 cc         1 4LK       0.392200
     11 C22          1.3800    -0.0010     2.3980 ca         1 4LK      -0.131200
     12 C4          -3.9010     1.4970     9.1410 ca         1 4LK       0.017600
     13 C13         -2.1500     2.0010     7.0530 ca         1 4LK      -0.128400
     14 C2          -1.8730     2.4900     8.3270 ca         1 4LK       0.181900
     15 C17          1.7590     0.7230     4.7260 cd         1 4LK      -0.242200
     16 C28         -1.5150     3.3180     5.1960 cc         1 4LK      -0.257000
     17 C16          0.6150     1.6450     4.8750 cd         1 4LK       0.299900
     18 C29         -0.6880     3.6110     4.1550 cd         1 4LK       0.004900
     19 C32          0.4360     2.7700     3.9460 c          1 4LK       0.499000
     20 C11         -4.6340     1.6590    11.4580 c          1 4LK       0.777600
     21 C8          -6.0320     0.4660    10.0950 c3         1 4LK      -0.009000
     22 C9          -6.6040     0.5070    11.5260 c3         1 4LK       0.195400
     23 C31         -2.0870     5.4630     3.6340 c3         1 4LK       0.233700
     24 N20          3.2310    -0.7420     3.9000 nd         1 4LK      -0.664800
     25 N15         -0.2630     1.4740     5.8410 nc         1 4LK      -0.458400
     26 N21          2.0780    -0.0020     3.6130 na         1 4LK       0.647300
     27 N14         -1.2660     2.2570     5.9980 na         1 4LK       0.352100
     28 N7          -4.7850     1.2400    10.1950 n          1 4LK      -0.038000
     29 O33          1.2230     2.9730     3.0320 o          1 4LK      -0.569100
     30 O10         -5.6250     1.2840    12.2750 os         1 4LK      -0.360900
     31 O30         -0.9300     4.6750     3.3430 os         1 4LK      -0.252900
     32 F1          -0.7550     3.2160     8.5430 f          1 4LK      -0.112900
     33 H1          -0.5400     0.0000    -0.9390 ha         1 4LK       0.102000
     34 H2           1.9240     0.0010    -0.9380 ha         1 4LK       0.103000
     35 H3          -1.7780    -0.0000     1.1910 ha         1 4LK       0.103000
     36 H4           3.1580    -0.0000     1.1960 ha         1 4LK       0.116500
     37 H5          -0.5540    -0.0010     3.3300 ha         1 4LK       0.116500
     38 H6          -5.0700     0.4250     7.6950 ha         1 4LK       0.119000
     39 H7          -3.5170     0.8760     5.8390 ha         1 4LK       0.116000
     40 H8           2.7380     0.8290     6.6910 ha         1 4LK       0.137000
     41 H9          -2.5390     2.6260    10.3560 ha         1 4LK       0.194000
     42 H10          4.4530    -0.9180     5.6380 h4         1 4LK       0.001100
     43 H11         -2.3810     3.9400     5.3830 h4         1 4LK       0.156000
     44 H12         -5.7520    -0.5610     9.8960 h1         1 4LK       0.047200
     45 H13         -7.5670     1.0040    11.5350 h1         1 4LK       0.030200
     46 H14         -2.0170     5.8470     4.6450 h1         1 4LK      -0.001300
     47 H15         -2.1450     6.2900     2.9370 h1         1 4LK      -0.001300
     48 H16         -2.9750     4.8490     3.5420 h1         1 4LK      -0.001300
     49 H17         -6.7080     1.0350     9.4680 h1         1 4LK       0.047200
     50 H18         -6.6820    -0.4940    11.9310 h1         1 4LK       0.030200
     51 O12         -3.6870     2.3240    11.8270 o          1 4LK      -0.659500
@<TRIPOS>BOND
     1     1     2 ar  
     2     1     3 ar  
     3     1    33 1   
     4     2     4 ar  
     5     2    34 1   
     6     3     5 ar  
     7     3    35 1   
     8     4    11 ar  
     9     4    36 1   
    10     5    11 ar  
    11     5    37 1   
    12     6     7 ar  
    13     6    12 ar  
    14     6    38 1   
    15     7    13 ar  
    16     7    39 1   
    17     8    10 1   
    18     8    15 2   
    19     8    40 1   
    20     9    12 ar  
    21     9    14 ar  
    22     9    41 1   
    23    10    24 2   
    24    10    42 1   
    25    11    26 1   
    26    12    28 1   
    27    13    14 ar  
    28    13    27 1   
    29    14    32 1   
    30    15    17 1   
    31    15    26 1   
    32    16    18 2   
    33    16    27 1   
    34    16    43 1   
    35    17    19 1   
    36    17    25 2   
    37    18    19 1   
    38    18    31 1   
    39    19    29 2   
    40    20    28 1   
    41    20    30 1   
    42    20    51 2   
    43    21    22 1   
    44    21    28 1   
    45    21    44 1   
    46    21    49 1   
    47    22    30 1   
    48    22    45 1   
    49    22    50 1   
    50    23    31 1   
    51    23    46 1   
    52    23    47 1   
    53    23    48 1   
    54    24    26 1   
    55    25    27 1   
@<TRIPOS>SUBSTRUCTURE
     1 4LK         1 TEMP              0 ****  ****    0 ROOT
