@<TRIPOS>MOLECULE
molecule
   32    33     1     0     0
SMALL
bcc


@<TRIPOS>ATOM
      1 C01          0.0000     0.0000     0.0000 c3         1 4LL      -0.091100
      2 C02          1.5300     0.0000     0.0000 c3         1 4LL      -0.081400
      3 C03          2.0400     0.0000     1.4430 c3         1 4LL      -0.098400
      4 C04          3.5700     0.0000     1.4420 c3         1 4LL       0.236800
      5 N05          4.0590     0.0000     2.8240 nu         1 4LL      -0.917900
      6 C06          5.4230     0.0000     3.0770 ca         1 4LL       0.709200
      7 N07          5.8460     0.0010     4.3240 nb         1 4LL      -0.756000
      8 C08          7.1510     0.0000     4.6140 ca         1 4LL       0.456600
      9 C09          8.1070    -0.0000     3.5710 ca         1 4LL      -0.196300
     10 C10          9.4760    -0.0020     3.8830 ca         1 4LL      -0.101000
     11 C11          9.8720    -0.0010     5.1850 ca         1 4LL      -0.139000
     12 C12          8.9370    -0.0010     6.2170 ca         1 4LL      -0.145000
     13 C13          7.5980     0.0010     5.9520 ca         1 4LL       0.050800
     14 O14          6.7000     0.0020     6.9720 oh         1 4LL      -0.502100
     15 C15          7.6620    -0.0010     2.2320 ca         1 4LL      -0.048000
     16 C16          6.3200    -0.0070     1.9990 ca         1 4LL      -0.296300
     17 H01         -0.3610    -0.0010    -1.0210 hc         1 4LL       0.036033
     18 H01A        -0.3610     0.8850     0.5100 hc         1 4LL       0.036033
     19 H01B        -0.3610    -0.8840     0.5110 hc         1 4LL       0.036033
     20 H02          1.8920    -0.8850    -0.5110 hc         1 4LL       0.042700
     21 H02A         1.8920     0.8850    -0.5110 hc         1 4LL       0.042700
     22 H03          1.6790     0.8850     1.9540 hc         1 4LL       0.051200
     23 H03A         1.6790    -0.8850     1.9540 hc         1 4LL       0.051200
     24 H04          3.9300     0.8840     0.9310 h1         1 4LL       0.039700
     25 H04A         3.9300    -0.8850     0.9320 h1         1 4LL       0.039700
     26 HN05         3.4090    -0.0010     3.5850 hn         1 4LL       0.453800
     27 H10         10.2140    -0.0020     3.0900 ha         1 4LL       0.130000
     28 H11         10.9300    -0.0030     5.4220 ha         1 4LL       0.130000
     29 H12          9.2780    -0.0010     7.2460 ha         1 4LL       0.139000
     30 HO14         6.6280    -0.8680     7.3290 ho         1 4LL       0.416000
     31 H15          8.3690    -0.0060     1.4120 ha         1 4LL       0.139000
     32 H16          5.9470     0.0460     0.9830 ha         1 4LL       0.137000
@<TRIPOS>BOND
     1     2     1 1
     2     1    17 1
     3     1    18 1
     4     1    19 1
     5     3     2 1
     6     2    20 1
     7     2    21 1
     8     4     3 1
     9     3    22 1
    10     3    23 1
    11     5     4 1
    12     4    24 1
    13     4    25 1
    14     5     6 1
    15     5    26 1
    16    16     6 ar
    17     6     7 ar
    18     7     8 ar
    19     9     8 ar
    20     8    13 ar
    21    15     9 ar
    22     9    10 ar
    23    10    11 ar
    24    10    27 1
    25    11    12 ar
    26    11    28 1
    27    13    12 ar
    28    12    29 1
    29    13    14 1
    30    14    30 1
    31    16    15 ar
    32    15    31 1
    33    16    32 1
@<TRIPOS>SUBSTRUCTURE
     1 4LL         1 TEMP              0 ****  ****    0 ROOT
