@<TRIPOS>MOLECULE
4LM
   34    35     1     0     0
SMALL
bcc


@<TRIPOS>ATOM
      1 C            0.0000     0.0000     0.0000 c2         1 4LM       0.420000
      2 N           -0.0600    -0.1130     2.4620 n2         1 4LM      -0.010000
      3 O1           1.2150     0.0000     0.0000 o          1 4LM      -0.617500
      4 N1           2.7440    -1.5660     6.3310 n2         1 4LM      -0.074000
      5 C2           1.8260    -0.6270     6.2160 c2         1 4LM      -0.188000
      6 C3           1.1750    -0.4140     5.0100 c2         1 4LM       0.011000
      7 O3           0.2320     0.5540     4.8970 oh         1 4LM      -0.228000
      8 C4           1.5120    -1.2180     3.9070 c3         1 4LM      -0.211000
      9 C5           2.4940    -2.2020     4.0830 c2         1 4LM       0.001000
     10 C6           3.0870    -2.3420     5.3200 c2         1 4LM      -0.096000
     11 CA          -0.7390     0.0000     1.2790 c2         1 4LM      -0.104000
     12 CB          -2.0810     0.1120     1.2810 c2         1 4LM      -0.155000
     13 CG          -2.8290     0.2360    -0.0220 c3         1 4LM      -0.070000
     14 C4A          0.8510    -1.0320     2.6050 c2         1 4LM      -0.177000
     15 C5A          2.8970    -3.0950     2.9380 c3         1 4LM       0.153000
     16 OP1          5.1240    -4.4430     1.2070 o          1 4LM      -0.756500
     17 OP2          3.4550    -6.1780     1.9680 o          1 4LM      -0.756500
     18 OP3          5.7590    -5.8630     3.1950 o          1 4LM      -0.756500
     19 OP4          3.9080    -4.0050     3.3760 os         1 4LM      -0.652000
     20 O2          -0.6720     0.0040    -1.1670 o          1 4LM      -0.617500
     21 HO3          0.6500     1.3980     4.8570 ho         1 4LM       0.171000
     22 H6           3.8470    -3.1000     5.4640 h4         1 4LM       0.173000
     23 HB          -2.6230     0.1120     2.2190 ha         1 4LM       0.071000
     24 HG          -2.4620     1.0960    -0.5680 hc         1 4LM       0.044333
     25 HGA         -2.6760    -0.6590    -0.6120 hc         1 4LM       0.044333
     26 HGB         -3.8860     0.3600     0.1800 hc         1 4LM       0.044333
     27 H2A          2.0000    -0.1490     8.2830 hc         1 4LM       0.027333
     28 H2A1         0.4110     0.1860     7.5830 hc         1 4LM       0.027333
     29 H2A2         1.7780     1.2490     7.2220 hc         1 4LM       0.027333
     30 H4A          1.6790    -0.4130     2.9290 DU         1 4LM       0.260000
     31 H5A          3.2820    -2.4890     2.1270 h1         1 4LM       0.064000
     32 H5A1         2.0340    -3.6520     2.5950 h1         1 4LM       0.064000
     33 C2A          1.4800     0.2240     7.4100 c3         1 4LM      -0.039000
     34 P            4.5740    -5.1070     2.4100 p5         1 4LM       0.906500
@<TRIPOS>BOND
     1     1     3 1   
     2     1    11 1   
     3     1    20 1   
     4     2    11 1   
     5     2    14 1   
     6     4     5 1   
     7     4    10 1   
     8     5     6 1   
     9     5    33 1   
    10     6     7 1   
    11     6     8 1   
    12     7    21 1   
    13     8     9 1   
    14     8    14 1   
    15     8    30 1   
    16     9    10 1   
    17     9    15 1   
    18    10    22 1   
    19    11    12 1   
    20    12    13 1   
    21    12    23 1   
    22    13    24 1   
    23    13    25 1   
    24    13    26 1   
    25    14    30 1   
    26    15    19 1   
    27    15    31 1   
    28    15    32 1   
    29    16    34 1   
    30    17    34 1   
    31    18    34 1   
    32    19    34 1   
    33    27    33 1   
    34    28    33 1   
    35    29    33 1   
@<TRIPOS>SUBSTRUCTURE
     1 4LM         1 TEMP              0 ****  ****    0 ROOT
