@<TRIPOS>MOLECULE
molecule
   34    34     1     0     0
SMALL
bcc


@<TRIPOS>ATOM
      1 C            0.0000     0.0000     0.0000 c          1 4LM       0.806800
      2 N           -0.0600    -0.1130     2.4620 ne         1 4LM      -0.580300
      3 O1           1.2150     0.0000     0.0000 o          1 4LM      -0.828300
      4 N1           2.7440    -1.5660     6.3310 nb         1 4LM      -0.714000
      5 C2           1.8260    -0.6270     6.2160 ca         1 4LM       0.314600
      6 C3           1.1750    -0.4140     5.0100 ca         1 4LM       0.007800
      7 O3           0.2320     0.5540     4.8970 oh         1 4LM      -0.487100
      8 C4           1.5120    -1.2180     3.9070 ca         1 4LM      -0.147900
      9 C5           2.4940    -2.2020     4.0830 ca         1 4LM      -0.125600
     10 C6           3.0870    -2.3420     5.3200 ca         1 4LM       0.417200
     11 CA          -0.7390     0.0000     1.2790 ce         1 4LM       0.186400
     12 CB          -2.0810     0.1120     1.2810 c2         1 4LM      -0.559200
     13 CG          -2.8290     0.2360    -0.0220 c3         1 4LM      -0.055900
     14 C4A          0.8510    -1.0320     2.6050 cf         1 4LM       0.526800
     15 C5A          2.8970    -3.0950     2.9380 c3         1 4LM       0.242700
     16 OP1          5.1240    -4.4430     1.2070 o          1 4LM      -0.910833
     17 OP2          3.4550    -6.1780     1.9680 o          1 4LM      -0.910833
     18 OP3          5.7590    -5.8630     3.1950 o          1 4LM      -0.910833
     19 OP4          3.9080    -4.0050     3.3760 os         1 4LM      -0.588200
     20 O2          -0.6720     0.0040    -1.1670 o          1 4LM      -0.828300
     21 HO3          0.6440     1.4010     4.9410 ho         1 4LM       0.394000
     22 H6           3.8470    -3.1000     5.4640 h4         1 4LM       0.074100
     23 HB          -2.1510     1.0240     0.7010 ha         1 4LM       0.307000
     24 HG          -2.3360     0.9650    -0.6530 hc         1 4LM       0.032367
     25 HGA         -3.8450     0.5560     0.1740 hc         1 4LM       0.032367
     26 HGB         -2.8440    -0.7250    -0.5220 hc         1 4LM       0.032367
     27 H2A          0.4090     0.1990     7.5730 hc         1 4LM       0.026367
     28 H2A1         1.9870    -0.1590     8.2870 hc         1 4LM       0.026367
     29 H2A2         1.7930     1.2450     7.2290 hc         1 4LM       0.026367
     30 H4A          1.0720    -1.7070     1.7860 h4         1 4LM       0.030800
     31 H5A          3.2820    -2.4900     2.1270 h1         1 4LM       0.051700
     32 H5A1         2.0340    -3.6520     2.5950 h1         1 4LM       0.051700
     33 C2A          1.4800     0.2240     7.4100 c3         1 4LM      -0.123400
     34 P            4.5740    -5.1070     2.4100 p5         1 4LM       1.182900
@<TRIPOS>BOND
     1     1     3 1
     2     1    11 1
     3     1    20 1
     4     2    11 1
     5     2    14 2
     6    34    16 1
     7    34    17 1
     8    34    18 1
     9    34    19 1
    10     4     5 ar
    11     4    10 ar
    12     5     6 ar
    13     5    33 1
    14     6     7 1
    15     6     8 ar
    16     8     9 ar
    17     8    14 1
    18     9    10 ar
    19     9    15 1
    20    11    12 2
    21    12    13 1
    22    15    19 1
    23     7    21 1
    24    10    22 1
    25    12    23 1
    26    13    24 1
    27    13    25 1
    28    13    26 1
    29    33    27 1
    30    33    28 1
    31    33    29 1
    32    14    30 1
    33    15    31 1
    34    15    32 1
@<TRIPOS>SUBSTRUCTURE
     1 4LM         1 TEMP              0 ****  ****    0 ROOT
