@<TRIPOS>MOLECULE
molecule
   52    56     1     0     0
SMALL
bcc


@<TRIPOS>ATOM
      1 O            0.0000     0.0000     0.0000 o          1 4LN      -0.615100
      2 C13          1.2160     0.0000     0.0000 c          1 4LN       0.673700
      3 C14          1.9540     0.0000     1.2790 ca         1 4LN      -0.153600
      4 C19          1.2570     0.0010     2.4900 ca         1 4LN      -0.061000
      5 C18          1.9490     0.0000     3.6800 ca         1 4LN      -0.155500
      6 C17          3.3390     0.0000     3.6790 ca         1 4LN       0.029800
      7 N3           4.0390    -0.0010     4.8900 na         1 4LN      -0.254800
      8 C21          3.5090    -0.0070     6.1460 cc         1 4LN       0.359900
      9 N5           4.5070    -0.0050     6.9880 nd         1 4LN      -0.346000
     10 N4           5.6210     0.0010     6.3440 nd         1 4LN      -0.346000
     11 C20          5.3920    -0.0010     5.0600 cc         1 4LN       0.359900
     12 C16          4.0360    -0.0010     2.4750 ca         1 4LN      -0.155500
     13 C15          3.3510    -0.0060     1.2820 ca         1 4LN      -0.061000
     14 N2           1.8900    -0.0060    -1.1670 ns         1 4LN      -0.567900
     15 C9           1.1580    -0.0120    -2.4360 c3         1 4LN       0.129400
     16 C12          0.2800     1.2380    -2.5230 c3         1 4LN      -0.104100
     17 C8           2.1540    -0.0190    -3.6010 c3         1 4LN       0.004800
     18 C7           2.8430    -1.3610    -3.6310 cc         1 4LN      -0.326800
     19 C5           3.9990    -1.7190    -4.2750 cd         1 4LN      -0.029300
     20 C4           4.8910    -0.9840    -5.0900 cd         1 4LN       0.121100
     21 O1           4.6870     0.3300    -5.3710 oh         1 4LN      -0.492100
     22 C3           5.9730    -1.6690    -5.5830 cc         1 4LN      -0.177000
     23 C2           6.1680    -3.0240    -5.2830 cc         1 4LN      -0.175000
     24 C10          0.2750    -1.2610    -2.5080 c3         1 4LN      -0.090400
     25 C11          1.1020    -2.4980    -2.1390 c3         1 4LN      -0.074700
     26 C6           2.3650    -2.4890    -2.9650 cc         1 4LN       0.400600
     27 N1           3.1830    -3.4950    -3.1820 nd         1 4LN      -0.564100
     28 N            4.2200    -3.0560    -3.9980 na         1 4LN       0.201000
     29 C1           5.3070    -3.7190    -4.5000 cd         1 4LN       0.011400
     30 C            5.5390    -5.1760    -4.1930 c3         1 4LN      -0.038800
     31 H18          0.1740     0.0010     2.4920 ha         1 4LN       0.153500
     32 H17          1.4090     0.0010     4.6200 ha         1 4LN       0.143000
     33 H20          2.4550    -0.0120     6.3990 h5         1 4LN       0.076100
     34 H19          6.1380     0.0020     4.2750 h5         1 4LN       0.076100
     35 H16          5.1200    -0.0030     2.4780 ha         1 4LN       0.143000
     36 H15          3.8950    -0.0060     0.3450 ha         1 4LN       0.153500
     37 H14          2.8900     0.0210    -1.1680 hn         1 4LN       0.320500
     38 H13         -0.0160     1.4000    -3.5530 hc         1 4LN       0.048700
     39 H12         -0.6030     1.1030    -1.9110 hc         1 4LN       0.048700
     40 H11          0.8380     2.0960    -2.1690 hc         1 4LN       0.048700
     41 H5           1.6250     0.1390    -4.5330 hc         1 4LN       0.061700
     42 H6           2.8890     0.7640    -3.4550 hc         1 4LN       0.061700
     43 H21          4.8320     0.4810    -6.2900 ho         1 4LN       0.426000
     44 H4           6.6880    -1.1540    -6.2130 ha         1 4LN       0.140000
     45 H3           7.0340    -3.5320    -5.6900 ha         1 4LN       0.151000
     46 H8          -0.1080    -1.3720    -3.5150 hc         1 4LN       0.067700
     47 H7          -0.5490    -1.1590    -1.8120 hc         1 4LN       0.067700
     48 H10          1.3550    -2.4650    -1.0860 hc         1 4LN       0.064700
     49 H9           0.5320    -3.3930    -2.3550 hc         1 4LN       0.064700
     50 H2           4.6360    -5.7370    -4.4010 hc         1 4LN       0.060033
     51 H1           6.3470    -5.5500    -4.8100 hc         1 4LN       0.060033
     52 H            5.8010    -5.2880    -3.1480 hc         1 4LN       0.060033
@<TRIPOS>BOND
     1     1     2 2   
     2    16    15 1   
     3    24    15 1   
     4    24    25 1   
     5     2    14 1   
     6     2     3 1   
     7    15    14 1   
     8    15    17 1   
     9    25    26 1   
    10    13     3 ar  
    11    13    12 ar  
    12     3     4 ar  
    13    17    18 1   
    14    12     6 ar  
    15    26    18 1   
    16    26    27 2   
    17     4     5 ar  
    18    18    19 2   
    19    27    28 1   
    20     6     5 ar  
    21     6     7 1   
    22     8     7 1   
    23     8     9 2   
    24     7    11 1   
    25    19    28 1   
    26    19    20 1   
    27    28    29 1   
    28     9    10 1   
    29    21    20 1   
    30    20    22 2   
    31    11    10 2   
    32    29    30 1   
    33    29    23 2   
    34    22    23 1   
    35     4    31 1   
    36     5    32 1   
    37     8    33 1   
    38    11    34 1   
    39    12    35 1   
    40    13    36 1   
    41    14    37 1   
    42    16    38 1   
    43    16    39 1   
    44    16    40 1   
    45    17    41 1   
    46    17    42 1   
    47    21    43 1   
    48    22    44 1   
    49    23    45 1   
    50    24    46 1   
    51    24    47 1   
    52    25    48 1   
    53    25    49 1   
    54    30    50 1   
    55    30    51 1   
    56    30    52 1   
@<TRIPOS>SUBSTRUCTURE
     1 4LN         1 TEMP              0 ****  ****    0 ROOT
