@<TRIPOS>MOLECULE
4LN
   52    56     1     0     0
SMALL
bcc


@<TRIPOS>ATOM
      1 O            0.0000     0.0000     0.0000 o          1 4LN      -0.652100
      2 C13          1.2160     0.0000     0.0000 c          1 4LN       0.594700
      3 C14          1.9540     0.0000     1.2790 ca         1 4LN      -0.150600
      4 C19          1.2570     0.0010     2.4900 ca         1 4LN      -0.035500
      5 C18          1.9490     0.0000     3.6800 ca         1 4LN      -0.118000
      6 C17          3.3390     0.0000     3.6790 ca         1 4LN      -0.146200
      7 N3           4.0390    -0.0010     4.8900 na         1 4LN       0.256200
      8 C21          3.5090    -0.0070     6.1460 cc         1 4LN       0.186900
      9 N5           4.5070    -0.0050     6.9880 nd         1 4LN      -0.319500
     10 N4           5.6210     0.0010     6.3440 nd         1 4LN      -0.319500
     11 C20          5.3920    -0.0010     5.0600 cc         1 4LN       0.186900
     12 C16          4.0360    -0.0010     2.4750 ca         1 4LN      -0.118000
     13 C15          3.3510    -0.0060     1.2820 ca         1 4LN      -0.035500
     14 N2           1.8900    -0.0060    -1.1670 ns         1 4LN      -0.177900
     15 C9           1.1580    -0.0120    -2.4360 c3         1 4LN       0.014400
     16 C12          0.2800     1.2380    -2.5230 c3         1 4LN      -0.023100
     17 C8           2.1540    -0.0190    -3.6010 c3         1 4LN       0.078800
     18 C7           2.8430    -1.3610    -3.6310 cc         1 4LN      -0.350800
     19 C5           3.9990    -1.7190    -4.2750 cd         1 4LN      -0.213300
     20 C4           4.8910    -0.9840    -5.0900 cd         1 4LN       0.174100
     21 O1           4.6870     0.3300    -5.3710 oh         1 4LN      -0.469100
     22 C3           5.9730    -1.6690    -5.5830 cc         1 4LN      -0.190000
     23 C2           6.1680    -3.0240    -5.2830 cc         1 4LN      -0.106000
     24 C10          0.2750    -1.2610    -2.5080 c3         1 4LN      -0.053400
     25 C11          1.1020    -2.4980    -2.1390 c3         1 4LN      -0.016700
     26 C6           2.3650    -2.4890    -2.9650 cc         1 4LN       0.428600
     27 N1           3.1830    -3.4950    -3.1820 nd         1 4LN      -0.735100
     28 N            4.2200    -3.0560    -3.9980 na         1 4LN       0.723000
     29 C1           5.3070    -3.7190    -4.5000 cd         1 4LN      -0.211600
     30 C            5.5390    -5.1760    -4.1930 c3         1 4LN       0.083200
     31 H18          0.1740     0.0010     2.4920 ha         1 4LN       0.123000
     32 H17          1.4090     0.0010     4.6200 ha         1 4LN       0.120500
     33 H20          2.4550    -0.0120     6.3990 h5         1 4LN       0.035600
     34 H19          6.1380     0.0020     4.2750 h5         1 4LN       0.035600
     35 H16          5.1200    -0.0030     2.4780 ha         1 4LN       0.120500
     36 H15          3.8950    -0.0060     0.3450 ha         1 4LN       0.123000
     37 H14          2.8900     0.0210    -1.1680 hn         1 4LN       0.184500
     38 H13         -0.0160     1.4000    -3.5530 hc         1 4LN       0.019700
     39 H12         -0.6030     1.1030    -1.9110 hc         1 4LN       0.019700
     40 H11          0.8380     2.0960    -2.1690 hc         1 4LN       0.019700
     41 H5           1.6250     0.1390    -4.5330 hc         1 4LN       0.029700
     42 H6           2.8890     0.7640    -3.4550 hc         1 4LN       0.029700
     43 H21          4.8320     0.4810    -6.2900 ho         1 4LN       0.408000
     44 H4           6.6880    -1.1540    -6.2130 ha         1 4LN       0.118000
     45 H3           7.0340    -3.5320    -5.6900 ha         1 4LN       0.121000
     46 H8          -0.1080    -1.3720    -3.5150 hc         1 4LN       0.043700
     47 H7          -0.5490    -1.1590    -1.8120 hc         1 4LN       0.043700
     48 H10          1.3550    -2.4650    -1.0860 hc         1 4LN       0.030200
     49 H9           0.5320    -3.3930    -2.3550 hc         1 4LN       0.030200
     50 H2           4.6360    -5.7370    -4.4010 hc         1 4LN       0.019033
     51 H1           6.3470    -5.5500    -4.8100 hc         1 4LN       0.019033
     52 H            5.8010    -5.2880    -3.1480 hc         1 4LN       0.019033
@<TRIPOS>BOND
     1     1     2 2   
     2     2     3 1   
     3     2    14 1   
     4     3     4 ar  
     5     3    13 ar  
     6     4     5 ar  
     7     4    31 1   
     8     5     6 ar  
     9     5    32 1   
    10     6     7 1   
    11     6    12 ar  
    12     7     8 1   
    13     7    11 1   
    14     8     9 2   
    15     8    33 1   
    16     9    10 1   
    17    10    11 2   
    18    11    34 1   
    19    12    13 ar  
    20    12    35 1   
    21    13    36 1   
    22    14    15 1   
    23    14    37 1   
    24    15    16 1   
    25    15    17 1   
    26    15    24 1   
    27    16    38 1   
    28    16    39 1   
    29    16    40 1   
    30    17    18 1   
    31    17    41 1   
    32    17    42 1   
    33    18    19 2   
    34    18    26 1   
    35    19    20 1   
    36    19    28 1   
    37    20    21 1   
    38    20    22 2   
    39    21    43 1   
    40    22    23 1   
    41    22    44 1   
    42    23    29 2   
    43    23    45 1   
    44    24    25 1   
    45    24    46 1   
    46    24    47 1   
    47    25    26 1   
    48    25    48 1   
    49    25    49 1   
    50    26    27 2   
    51    27    28 1   
    52    28    29 1   
    53    29    30 1   
    54    30    50 1   
    55    30    51 1   
    56    30    52 1   
@<TRIPOS>SUBSTRUCTURE
     1 4LN         1 TEMP              0 ****  ****    0 ROOT
