@<TRIPOS>MOLECULE
molecule
   80    84     1     0     0
SMALL
bcc


@<TRIPOS>ATOM
      1 C1           0.0000     0.0000     0.0000 c3         1 4LO      -0.105600
      2 C2           1.5300     0.0000     0.0000 c3         1 4LO       0.139100
      3 C3           2.0410     0.0000     1.4420 c3         1 4LO      -0.105600
      4 C13          1.6790     3.7320    -5.1370 c3         1 4LO       0.159800
      5 C14          2.1570     2.4530    -4.4450 c3         1 4LO      -0.115400
      6 C15          2.0570    -1.0560    -4.8030 ca         1 4LO      -0.103300
      7 C16          2.0760    -1.0110    -6.3100 c3         1 4LO      -0.039800
      8 C17          2.4590    -2.2020    -4.1430 ca         1 4LO      -0.077000
      9 C18          2.4430    -2.2450    -2.7570 ca         1 4LO       0.127600
     10 C20          3.8820    -4.1730    -2.5940 ca         1 4LO       0.998900
     11 C22          5.1790    -6.0860    -2.3560 ca         1 4LO       0.817200
     12 C24          4.8790    -7.5180    -0.4490 ca         1 4LO       0.238600
     13 C25          4.4560    -6.4780     0.3710 ca         1 4LO      -0.146000
     14 C26          3.8400    -6.7580     1.5740 ca         1 4LO      -0.063000
     15 C27          3.6440    -8.0710     1.9640 ca         1 4LO      -0.169000
     16 C28          4.0650    -9.1070     1.1510 ca         1 4LO      -0.013000
     17 C29          4.6810    -8.8340    -0.0540 ca         1 4LO      -0.327500
     18 O4           2.0060    -1.1670    -0.6740 os         1 4LO      -0.334900
     19 C5           2.0230    -1.1300    -2.0330 ca         1 4LO       0.111100
     20 C6           1.6240     0.0140    -2.7020 ca         1 4LO      -0.206000
     21 C7           1.6470     0.0510    -4.0850 ca         1 4LO      -0.056300
     22 C8           1.2170     1.3010    -4.8100 c3         1 4LO      -0.024400
     23 C9          -0.2120     1.6670    -4.3970 c3         1 4LO      -0.115400
     24 C10         -0.6200     2.9690    -5.0900 c3         1 4LO       0.159800
     25 N11          0.3090     4.0410    -4.7080 n3         1 4LO      -0.721600
     26 N21          4.2040    -5.2890    -1.9440 nb         1 4LO      -0.880000
     27 N23          5.4980    -7.2370    -1.6700 nu         1 4LO      -0.774300
     28 S30          5.2170   -10.1550    -1.0900 sy         1 4LO       1.201300
     29 O31          6.5710    -9.8420    -1.3850 o          1 4LO      -0.630800
     30 O32          4.8770   -11.3280    -0.3650 o          1 4LO      -0.630800
     31 C33          4.1910   -10.0080    -2.5790 c3         1 4LO      -0.188900
     32 C34          4.4760   -11.1840    -3.5140 c3         1 4LO      -0.073100
     33 C35          2.7130   -10.0180    -2.1820 c3         1 4LO      -0.073100
     34 C36          5.9050    -5.7000    -3.5650 ca         1 4LO      -0.502600
     35 C37          6.9420    -6.2190    -4.3060 cc         1 4LO      -0.060100
     36 N38          7.1670    -5.3890    -5.3340 na         1 4LO       0.019800
     37 N39          6.2760    -4.3110    -5.2810 nc         1 4LO      -0.274400
     38 C40          5.4900    -4.4540    -4.2350 ca         1 4LO       0.431300
     39 N41          4.4770    -3.7550    -3.6890 nb         1 4LO      -0.824000
     40 H1          -0.3610     1.0170     0.0980 hc         1 4LO       0.046033
     41 H2          -0.3610    -0.5930     0.8310 hc         1 4LO       0.046033
     42 H3          -0.3610    -0.4230    -0.9290 hc         1 4LO       0.046033
     43 H4           1.8910     0.8850    -0.5110 h1         1 4LO       0.047700
     44 H5           1.6360     0.8560     1.9680 hc         1 4LO       0.046033
     45 H6           3.1230     0.0550     1.4420 hc         1 4LO       0.046033
     46 H7           1.7260    -0.9110     1.9360 hc         1 4LO       0.046033
     47 H8           1.2120     4.0560    -2.8170 h1         1 4LO       0.033033
     48 H9           0.0220     5.3370    -3.0860 h1         1 4LO       0.033033
     49 H10         -0.5150     3.6740    -2.8160 h1         1 4LO       0.033033
     50 H11          2.3330     4.5530    -4.8670 h1         1 4LO       0.054450
     51 H12          1.6960     3.5880    -6.2110 h1         1 4LO       0.054450
     52 H13          3.1610     2.2170    -4.7760 hc         1 4LO       0.049200
     53 H14          2.1490     2.5990    -3.3720 hc         1 4LO       0.049200
     54 H15          2.3640    -1.9810    -6.6970 hc         1 4LO       0.042033
     55 H16          2.7870    -0.2640    -6.6400 hc         1 4LO       0.042033
     56 H17          1.0880    -0.7550    -6.6750 hc         1 4LO       0.042033
     57 H18          2.7850    -3.0670    -4.7090 ha         1 4LO       0.172000
     58 H19          4.6090    -5.4500     0.0660 ha         1 4LO       0.175000
     59 H20          3.5090    -5.9490     2.2140 ha         1 4LO       0.137000
     60 H21          3.1610    -8.2880     2.9090 ha         1 4LO       0.137000
     61 H22          3.9110   -10.1340     1.4590 ha         1 4LO       0.160000
     62 H23          1.2990     0.8830    -2.1430 ha         1 4LO       0.139000
     63 H24          1.2500     1.1350    -5.8800 hc         1 4LO       0.063700
     64 H25         -0.8870     0.8730    -4.6940 hc         1 4LO       0.049200
     65 H26         -0.2530     1.8010    -3.3230 hc         1 4LO       0.049200
     66 H27         -0.5870     2.8300    -6.1640 h1         1 4LO       0.054450
     67 H28         -1.6240     3.2380    -4.7860 h1         1 4LO       0.054450
     68 H30          2.3520    -3.7110    -1.2720 hn         1 4LO       0.470800
     69 H31          6.2130    -7.8450    -2.0190 hn         1 4LO       0.481800
     70 H32          4.4220    -9.0790    -3.0870 h1         1 4LO       0.100700
     71 H33          5.5410   -11.2450    -3.7040 hc         1 4LO       0.052367
     72 H34          3.9500   -11.0380    -4.4500 hc         1 4LO       0.052367
     73 H35          4.1390   -12.1040    -3.0510 hc         1 4LO       0.052367
     74 H36          2.5340   -10.8210    -1.4770 hc         1 4LO       0.052367
     75 H37          2.4550    -9.0710    -1.7240 hc         1 4LO       0.052367
     76 H38          2.1030   -10.1700    -3.0650 hc         1 4LO       0.052367
     77 H39          7.4820    -7.1340    -4.0950 h4         1 4LO       0.175000
     78 H40          7.8690    -5.5210    -6.0360 hn         1 4LO       0.337700
     79 N19          2.8480    -3.4060    -2.0860 nu         1 4LO      -0.740300
     80 C12          0.2530     4.2930    -3.2620 c3         1 4LO       0.143100
@<TRIPOS>BOND
     1    36    37 1   
     2    36    35 1   
     3    37    38 2   
     4    35    34 2   
     5    38    39 ar  
     6    38    34 ar  
     7    33    31 1   
     8    39    10 ar  
     9    34    11 ar  
    10    31    32 1   
    11    31    28 1   
    12    10    79 1   
    13    10    26 ar  
    14    11    26 ar  
    15    11    27 1   
    16    79     9 1   
    17    29    28 2   
    18    27    12 1   
    19    28    30 2   
    20    28    17 1   
    21     9     8 ar  
    22     9    19 ar  
    23     8     6 ar  
    24     3     2 1   
    25    18    19 1   
    26    18     2 1   
    27    19    20 ar  
    28    12    17 ar  
    29    12    13 ar  
    30     6     7 1   
    31     6    21 ar  
    32    17    16 ar  
    33     1     2 1   
    34    20    21 ar  
    35    13    14 ar  
    36    21    22 1   
    37     5    22 1   
    38     5     4 1   
    39    16    15 ar  
    40    22    23 1   
    41    14    15 ar  
    42     4    25 1   
    43    80    25 1   
    44    23    24 1   
    45    25    24 1   
    46     1    40 1   
    47     1    41 1   
    48     1    42 1   
    49     2    43 1   
    50     3    44 1   
    51     3    45 1   
    52     3    46 1   
    53    80    47 1   
    54    80    48 1   
    55    80    49 1   
    56     4    50 1   
    57     4    51 1   
    58     5    52 1   
    59     5    53 1   
    60     7    54 1   
    61     7    55 1   
    62     7    56 1   
    63     8    57 1   
    64    13    58 1   
    65    14    59 1   
    66    15    60 1   
    67    16    61 1   
    68    20    62 1   
    69    22    63 1   
    70    23    64 1   
    71    23    65 1   
    72    24    66 1   
    73    24    67 1   
    74    79    68 1   
    75    27    69 1   
    76    31    70 1   
    77    32    71 1   
    78    32    72 1   
    79    32    73 1   
    80    33    74 1   
    81    33    75 1   
    82    33    76 1   
    83    35    77 1   
    84    36    78 1   
@<TRIPOS>SUBSTRUCTURE
     1 4LO         1 TEMP              0 ****  ****    0 ROOT
