@<TRIPOS>MOLECULE
4LO
   80    84     1     0     0
SMALL
bcc


@<TRIPOS>ATOM
      1 C1           0.0000     0.0000     0.0000 c3         1 4LO      -0.018100
      2 C2           1.5300     0.0000     0.0000 c3         1 4LO       0.166100
      3 C3           2.0410     0.0000     1.4420 c3         1 4LO      -0.018100
      4 C13          1.6790     3.7320    -5.1370 c3         1 4LO       0.157300
      5 C14          2.1570     2.4530    -4.4450 c3         1 4LO      -0.068900
      6 C15          2.0570    -1.0560    -4.8030 ca         1 4LO      -0.106300
      7 C16          2.0760    -1.0110    -6.3100 c3         1 4LO       0.065200
      8 C17          2.4590    -2.2020    -4.1430 ca         1 4LO      -0.057000
      9 C18          2.4430    -2.2450    -2.7570 ca         1 4LO      -0.039400
     10 C20          3.8820    -4.1730    -2.5940 ca         1 4LO       0.756900
     11 C22          5.1790    -6.0860    -2.3560 ca         1 4LO       0.631200
     12 C24          4.8790    -7.5180    -0.4490 ca         1 4LO       0.093600
     13 C25          4.4560    -6.4780     0.3710 ca         1 4LO      -0.141000
     14 C26          3.8400    -6.7580     1.5740 ca         1 4LO      -0.030000
     15 C27          3.6440    -8.0710     1.9640 ca         1 4LO      -0.151000
     16 C28          4.0650    -9.1070     1.1510 ca         1 4LO       0.022000
     17 C29          4.6810    -8.8340    -0.0540 ca         1 4LO      -0.185500
     18 O4           2.0060    -1.1670    -0.6740 os         1 4LO      -0.308900
     19 C5           2.0230    -1.1300    -2.0330 ca         1 4LO       0.124100
     20 C6           1.6240     0.0140    -2.7020 ca         1 4LO      -0.203000
     21 C7           1.6470     0.0510    -4.0850 ca         1 4LO      -0.054300
     22 C8           1.2170     1.3010    -4.8100 c3         1 4LO      -0.000400
     23 C9          -0.2120     1.6670    -4.3970 c3         1 4LO      -0.068900
     24 C10         -0.6200     2.9690    -5.0900 c3         1 4LO       0.157300
     25 N11          0.3090     4.0410    -4.7080 n3         1 4LO      -0.543600
     26 N21          4.2040    -5.2890    -1.9440 nb         1 4LO      -0.782000
     27 N23          5.4980    -7.2370    -1.6700 nu         1 4LO      -0.328300
     28 S30          5.2170   -10.1550    -1.0900 sy         1 4LO       0.879300
     29 O31          6.5710    -9.8420    -1.3850 o          1 4LO      -0.592300
     30 O32          4.8770   -11.3280    -0.3650 o          1 4LO      -0.592300
     31 C33          4.1910   -10.0080    -2.5790 c3         1 4LO      -0.018900
     32 C34          4.4760   -11.1840    -3.5140 c3         1 4LO       0.029900
     33 C35          2.7130   -10.0180    -2.1820 c3         1 4LO       0.029900
     34 C36          5.9050    -5.7000    -3.5650 ca         1 4LO      -0.515600
     35 C37          6.9420    -6.2190    -4.3060 cc         1 4LO      -0.219100
     36 N38          7.1670    -5.3890    -5.3340 na         1 4LO       0.540800
     37 N39          6.2760    -4.3110    -5.2810 nc         1 4LO      -0.448400
     38 C40          5.4900    -4.4540    -4.2350 ca         1 4LO       0.431300
     39 N41          4.4770    -3.7550    -3.6890 nb         1 4LO      -0.733000
     40 H1          -0.3610     1.0170     0.0980 hc         1 4LO       0.013200
     41 H2          -0.3610    -0.5930     0.8310 hc         1 4LO       0.013200
     42 H3          -0.3610    -0.4230    -0.9290 hc         1 4LO       0.013200
     43 H4           1.8910     0.8850    -0.5110 h1         1 4LO       0.021700
     44 H5           1.6360     0.8560     1.9680 hc         1 4LO       0.013200
     45 H6           3.1230     0.0550     1.4420 hc         1 4LO       0.013200
     46 H7           1.7260    -0.9110     1.9360 hc         1 4LO       0.013200
     47 H8           1.2120     4.0560    -2.8170 h1         1 4LO       0.006033
     48 H9           0.0220     5.3370    -3.0860 h1         1 4LO       0.006033
     49 H10         -0.5150     3.6740    -2.8160 h1         1 4LO       0.006033
     50 H11          2.3330     4.5530    -4.8670 h1         1 4LO       0.022700
     51 H12          1.6960     3.5880    -6.2110 h1         1 4LO       0.022700
     52 H13          3.1610     2.2170    -4.7760 hc         1 4LO       0.026950
     53 H14          2.1490     2.5990    -3.3720 hc         1 4LO       0.026950
     54 H15          2.3640    -1.9810    -6.6970 hc         1 4LO       0.008700
     55 H16          2.7870    -0.2640    -6.6400 hc         1 4LO       0.008700
     56 H17          1.0880    -0.7550    -6.6750 hc         1 4LO       0.008700
     57 H18          2.7850    -3.0670    -4.7090 ha         1 4LO       0.148000
     58 H19          4.6090    -5.4500     0.0660 ha         1 4LO       0.151000
     59 H20          3.5090    -5.9490     2.2140 ha         1 4LO       0.103000
     60 H21          3.1610    -8.2880     2.9090 ha         1 4LO       0.109000
     61 H22          3.9110   -10.1340     1.4590 ha         1 4LO       0.131000
     62 H23          1.2990     0.8830    -2.1430 ha         1 4LO       0.130000
     63 H24          1.2500     1.1350    -5.8800 hc         1 4LO       0.045700
     64 H25         -0.8870     0.8730    -4.6940 hc         1 4LO       0.026950
     65 H26         -0.2530     1.8010    -3.3230 hc         1 4LO       0.026950
     66 H27         -0.5870     2.8300    -6.1640 h1         1 4LO       0.022700
     67 H28         -1.6240     3.2380    -4.7860 h1         1 4LO       0.022700
     68 H30          2.3520    -3.7110    -1.2720 hn         1 4LO       0.293800
     69 H31          6.2130    -7.8450    -2.0190 hn         1 4LO       0.330800
     70 H32          4.4220    -9.0790    -3.0870 h1         1 4LO       0.068700
     71 H33          5.5410   -11.2450    -3.7040 hc         1 4LO       0.015867
     72 H34          3.9500   -11.0380    -4.4500 hc         1 4LO       0.015867
     73 H35          4.1390   -12.1040    -3.0510 hc         1 4LO       0.015867
     74 H36          2.5340   -10.8210    -1.4770 hc         1 4LO       0.015867
     75 H37          2.4550    -9.0710    -1.7240 hc         1 4LO       0.015867
     76 H38          2.1030   -10.1700    -3.0650 hc         1 4LO       0.015867
     77 H39          7.4820    -7.1340    -4.0950 h4         1 4LO       0.147000
     78 H40          7.8690    -5.5210    -6.0360 hn         1 4LO       0.144700
     79 N19          2.8480    -3.4060    -2.0860 nu         1 4LO      -0.268300
     80 C12          0.2530     4.2930    -3.2620 c3         1 4LO       0.164100
@<TRIPOS>BOND
     1     1     2 1   
     2     1    40 1   
     3     1    41 1   
     4     1    42 1   
     5     2     3 1   
     6     2    18 1   
     7     2    43 1   
     8     3    44 1   
     9     3    45 1   
    10     3    46 1   
    11     4     5 1   
    12     4    25 1   
    13     4    50 1   
    14     4    51 1   
    15     5    22 1   
    16     5    52 1   
    17     5    53 1   
    18     6     7 1   
    19     6     8 ar  
    20     6    21 ar  
    21     7    54 1   
    22     7    55 1   
    23     7    56 1   
    24     8     9 ar  
    25     8    57 1   
    26     9    19 ar  
    27     9    79 1   
    28    10    26 ar  
    29    10    39 ar  
    30    10    79 1   
    31    11    26 ar  
    32    11    27 1   
    33    11    34 ar  
    34    12    13 ar  
    35    12    17 ar  
    36    12    27 1   
    37    13    14 ar  
    38    13    58 1   
    39    14    15 ar  
    40    14    59 1   
    41    15    16 ar  
    42    15    60 1   
    43    16    17 ar  
    44    16    61 1   
    45    17    28 1   
    46    18    19 1   
    47    19    20 ar  
    48    20    21 ar  
    49    20    62 1   
    50    21    22 1   
    51    22    23 1   
    52    22    63 1   
    53    23    24 1   
    54    23    64 1   
    55    23    65 1   
    56    24    25 1   
    57    24    66 1   
    58    24    67 1   
    59    25    80 1   
    60    27    69 1   
    61    28    29 2   
    62    28    30 2   
    63    28    31 1   
    64    31    32 1   
    65    31    33 1   
    66    31    70 1   
    67    32    71 1   
    68    32    72 1   
    69    32    73 1   
    70    33    74 1   
    71    33    75 1   
    72    33    76 1   
    73    34    35 2   
    74    34    38 ar  
    75    35    36 1   
    76    35    77 1   
    77    36    37 1   
    78    36    78 1   
    79    37    38 2   
    80    38    39 ar  
    81    47    80 1   
    82    48    80 1   
    83    49    80 1   
    84    68    79 1   
@<TRIPOS>SUBSTRUCTURE
     1 4LO         1 TEMP              0 ****  ****    0 ROOT
