@<TRIPOS>MOLECULE
4LP
   63    68     1     0     0
SMALL
bcc


@<TRIPOS>ATOM
      1 C33        -0.1070   -0.1030   -0.0370 ca        1 4LP     -0.129000
      2 C32         1.2600    0.1680   -0.0620 ca        1 4LP     -0.126500
      3 C34        -0.7500   -0.3180    1.1810 ca        1 4LP     -0.126500
      4 C31         1.9920    0.2270    1.1210 ca        1 4LP     -0.115000
      5 C35        -0.0370   -0.2700    2.3770 ca        1 4LP     -0.115000
      6 C21         2.4040   -5.0140   -1.5200 ca        1 4LP     -0.181000
      7 C22         3.1690   -4.2050   -0.6820 ca        1 4LP     -0.070000
      8 C26         3.6990   -0.1460    5.1350 cc        1 4LP     -0.245300
      9 C27         2.6710    0.7800    5.5400 cc        1 4LP      0.286200
     10 C9          1.1360   -5.7480    0.4510 ca        1 4LP     -0.187300
     11 C30         1.3460   -0.0030    2.3520 ca        1 4LP      0.030800
     12 C20         1.3800   -5.7790   -0.9590 ca        1 4LP      0.106600
     13 C6          2.9530   -4.1620    0.7040 ca        1 4LP      0.061600
     14 C7          1.9120   -4.9500    1.2870 ca        1 4LP      0.210900
     15 C25         3.2980   -0.5960    3.8640 cd        1 4LP     -0.124200
     16 C4          5.1670   -3.5310    1.4990 cc        1 4LP     -0.036000
     17 C24         3.9530   -1.6010    3.0350 cd        1 4LP      0.318900
     18 C3          5.9880   -2.7570    2.2730 cd        1 4LP     -0.041100
     19 C36         5.4380   -1.7000    3.1470 c         1 4LP      0.485000
     20 C13        -0.3780   -7.2360   -0.6250 c         1 4LP      0.703500
     21 C17         1.4180   -9.4370   -3.1670 cx        1 4LP     -0.121900
     22 C18         1.4220   -8.8460   -4.5450 cx        1 4LP     -0.121900
     23 C16         1.6240   -7.9560   -3.3470 cx        1 4LP     -0.165700
     24 C10        -0.0160   -6.6680    0.7760 c3        1 4LP     -0.048700
     25 C11        -1.2050   -5.9160    1.3390 c3        1 4LP     -0.085600
     26 C12         0.3950   -7.8030    1.6910 c3        1 4LP     -0.085600
     27 C1          7.9270   -3.9300    1.5710 c3        1 4LP      0.102700
     28 N28         1.7200    0.8830    4.5780 nd        1 4LP     -0.492800
     29 N23         3.2030   -2.3880    2.2670 nc        1 4LP     -0.341400
     30 N29         2.0800    0.0660    3.5750 na        1 4LP      0.162300
     31 N5          3.7790   -3.3200    1.5230 na        1 4LP     -0.183900
     32 N14         0.4600   -6.6270   -1.5960 n         1 4LP     -0.375000
     33 O37         6.1280   -0.9920    3.8830 o         1 4LP     -0.506100
     34 O19        -1.2560   -8.0590   -0.8910 o         1 4LP     -0.583500
     35 O2          7.3580   -2.8630    2.3220 os        1 4LP     -0.280900
     36 F8          1.6880   -4.9300    2.6180 f         1 4LP     -0.111900
     37 H1         -0.6780   -0.1430   -0.9770 ha        1 4LP      0.133000
     38 H2          1.7690    0.3470   -1.0210 ha        1 4LP      0.134500
     39 H3         -1.8300   -0.5260    1.2040 ha        1 4LP      0.134500
     40 H4          3.0690    0.4510    1.0900 ha        1 4LP      0.148500
     41 H5         -0.5580   -0.4320    3.3330 ha        1 4LP      0.148500
     42 H6          2.6020   -5.0360   -2.6010 ha        1 4LP      0.153000
     43 H7          3.9650   -3.5860   -1.1300 ha        1 4LP      0.151000
     44 H8          4.6000   -0.4210    5.6750 ha        1 4LP      0.185000
     45 H9          2.6120    1.3440    6.4710 h4        1 4LP      0.045100
     46 H10         5.5180   -4.3410    0.8400 h4        1 4LP      0.170000
     47 H12         2.2720  -10.0570   -2.8440 hc        1 4LP      0.076950
     48 H13         0.4710   -8.7850   -5.1040 hc        1 4LP      0.076950
     49 H14         2.2810   -9.0370   -5.2120 hc        1 4LP      0.076950
     50 H15         2.6340   -7.5410   -3.1630 hc        1 4LP      0.081700
     51 H16        -1.5130   -5.0900    0.6540 hc        1 4LP      0.055200
     52 H17        -2.0660   -6.6150    1.4720 hc        1 4LP      0.055200
     53 H18        -0.9310   -5.4770    2.3300 hc        1 4LP      0.055200
     54 H19        -0.4590   -8.5110    1.8230 hc        1 4LP      0.055200
     55 H20         1.2620   -8.3620    1.2650 hc        1 4LP      0.055200
     56 H21         0.6880   -7.3900    2.6880 hc        1 4LP      0.055200
     57 H22         7.7350   -3.7890    0.4800 h1        1 4LP      0.046367
     58 H23         7.5270   -4.9150    1.9150 h1        1 4LP      0.046367
     59 H24         9.0210   -3.8460    1.7930 h1        1 4LP      0.046367
     60 C15         0.5140   -7.0010   -2.9820 c3        1 4LP      0.128000
     61 H11         0.4630   -9.7920   -2.7380 hc        1 4LP      0.076950
     62 H25        -0.4840   -7.4660   -3.2350 h1        1 4LP      0.069200
     63 H26         0.6380   -6.0600   -3.5940 h1        1 4LP      0.069200
@<TRIPOS>BOND
     1    1    2 ar  
     2    1    3 ar  
     3    1   37 1   
     4    2    4 ar  
     5    2   38 1   
     6    3    5 ar  
     7    3   39 1   
     8    4   11 ar  
     9    4   40 1   
    10    5   11 ar  
    11    5   41 1   
    12    6    7 ar  
    13    6   12 ar  
    14    6   42 1   
    15    7   13 ar  
    16    7   43 1   
    17    8    9 1   
    18    8   15 2   
    19    8   44 1   
    20    9   28 2   
    21    9   45 1   
    22   10   12 ar  
    23   10   14 ar  
    24   10   24 1   
    25   11   30 1   
    26   12   32 1   
    27   13   14 ar  
    28   13   31 1   
    29   14   36 1   
    30   15   17 1   
    31   15   30 1   
    32   16   18 2   
    33   16   31 1   
    34   16   46 1   
    35   17   19 1   
    36   17   29 2   
    37   18   19 1   
    38   18   35 1   
    39   19   33 2   
    40   20   24 1   
    41   20   32 1   
    42   20   34 2   
    43   21   22 1   
    44   21   23 1   
    45   21   47 1   
    46   21   61 1   
    47   22   23 1   
    48   22   48 1   
    49   22   49 1   
    50   23   50 1   
    51   23   60 1   
    52   24   25 1   
    53   24   26 1   
    54   25   51 1   
    55   25   52 1   
    56   25   53 1   
    57   26   54 1   
    58   26   55 1   
    59   26   56 1   
    60   27   35 1   
    61   27   57 1   
    62   27   58 1   
    63   27   59 1   
    64   28   30 1   
    65   29   31 1   
    66   32   60 1   
    67   60   62 1   
    68   60   63 1   
@<TRIPOS>SUBSTRUCTURE
     1 4LP         1 TEMP              0 ****  ****    0 ROOT
