@<TRIPOS>MOLECULE
molecule
   63    68     1     0     0
SMALL
bcc


@<TRIPOS>ATOM
      1 C33          0.0000     0.0000     0.0000 ca         1 4LP      -0.134000
      2 C32          1.3830     0.0000     0.0000 ca         1 4LP      -0.119500
      3 C34         -0.6940     0.0070     1.1950 ca         1 4LP      -0.119500
      4 C31          2.0740     0.0000     1.1950 ca         1 4LP      -0.122000
      5 C35         -0.0090     0.0080     2.3940 ca         1 4LP      -0.122000
      6 C21          2.2510    -4.9350    -1.5470 ca         1 4LP      -0.164000
      7 C22          3.0610    -4.1530    -0.7520 ca         1 4LP      -0.074000
      8 C26          3.5470    -0.4410     5.1990 cc         1 4LP      -0.292300
      9 C27          2.6490     0.5120     5.6780 cc         1 4LP       0.331200
     10 C9           1.0790    -5.6960     0.4030 ca         1 4LP      -0.180300
     11 C30          1.3810     0.0020     2.3980 ca         1 4LP       0.042800
     12 C20          1.2470    -5.7160    -0.9750 ca         1 4LP       0.100600
     13 C6           2.8830    -4.1350     0.6260 ca         1 4LP       0.055600
     14 C7           1.8810    -4.9120     1.2020 ca         1 4LP       0.214900
     15 C25          3.1820    -0.7480     3.9070 cd         1 4LP      -0.076200
     16 C4           5.0480    -3.4990     1.3350 cd         1 4LP      -0.077000
     17 C24          3.8560    -1.7080     3.0100 cd         1 4LP       0.324900
     18 C3           5.8940    -2.7470     2.0890 cc         1 4LP      -0.018100
     19 C36          5.3230    -1.7990     2.9780 c          1 4LP       0.461000
     20 C13         -0.4940    -7.1440    -0.6540 c          1 4LP       0.719500
     21 C17          1.5840    -9.5050    -2.9000 cx         1 4LP      -0.148400
     22 C18          2.1520    -8.7630    -4.1110 cx         1 4LP      -0.148400
     23 C16          1.9130    -8.0140    -2.7990 cx         1 4LP      -0.174700
     24 C10         -0.0710    -6.6290     0.7050 c3         1 4LP      -0.087700
     25 C11         -1.2190    -5.8680     1.3710 c3         1 4LP      -0.072100
     26 C12          0.3940    -7.7820     1.5970 c3         1 4LP      -0.072100
     27 C1           7.7220    -3.8790     1.0730 c3         1 4LP       0.120700
     28 N28          1.7790     0.7800     4.7370 nd         1 4LP      -0.497800
     29 N23          3.1540    -2.4940     2.2200 nc         1 4LP      -0.372400
     30 N29          2.0790     0.0030     3.6120 na         1 4LP       0.152300
     31 N5           3.7070    -3.3390     1.4300 na         1 4LP      -0.117900
     32 N14          0.3140    -6.5710    -1.5630 n          1 4LP      -0.339000
     33 O37          6.0210    -1.0890     3.6860 o          1 4LP      -0.516100
     34 O19         -1.3920    -7.9270    -0.8800 o          1 4LP      -0.588500
     35 O2           7.2420    -2.9000     1.9950 os         1 4LP      -0.279900
     36 F8           1.7010    -4.9000     2.5410 f          1 4LP      -0.112900
     37 H1          -0.5400    -0.0000    -0.9390 ha         1 4LP       0.129000
     38 H2           1.9250    -0.0030    -0.9380 ha         1 4LP       0.132000
     39 H3          -1.7770     0.0090     1.1910 ha         1 4LP       0.132000
     40 H4           3.1580    -0.0020     1.1950 ha         1 4LP       0.145500
     41 H5          -0.5540     0.0110     3.3300 ha         1 4LP       0.145500
     42 H6           2.3960    -4.9440    -2.6210 ha         1 4LP       0.149000
     43 H7           3.8390    -3.5500    -1.2040 ha         1 4LP       0.151000
     44 H8           4.3810    -0.8630     5.7460 ha         1 4LP       0.172000
     45 H9           2.6690     0.9590     6.6640 h4         1 4LP       0.051100
     46 H10          5.4510    -4.2320     0.6460 h4         1 4LP       0.167000
     47 H12          0.5300    -9.7490    -2.9530 hc         1 4LP       0.074450
     48 H13          3.1880    -8.9750    -4.3460 hc         1 4LP       0.074450
     49 H14          1.4450    -8.5540    -4.9050 hc         1 4LP       0.074450
     50 H15          2.8100    -7.7840    -2.2380 hc         1 4LP       0.093700
     51 H16         -1.4880    -5.0150     0.7600 hc         1 4LP       0.052033
     52 H17         -0.9060    -5.5270     2.3500 hc         1 4LP       0.052033
     53 H18         -2.0750    -6.5230     1.4740 hc         1 4LP       0.052033
     54 H19          0.5950    -7.4090     2.5940 hc         1 4LP       0.052033
     55 H20         -0.3810    -8.5380     1.6440 hc         1 4LP       0.052033
     56 H21          1.2970    -8.2160     1.1850 hc         1 4LP       0.052033
     57 H22          7.3310    -4.8530     1.3440 h1         1 4LP       0.043033
     58 H23          7.3930    -3.6250     0.0720 h1         1 4LP       0.043033
     59 H24          8.8040    -3.9040     1.1020 h1         1 4LP       0.043033
     60 C15          0.2230    -6.8150    -3.0040 c3         1 4LP       0.118000
     61 H11          2.2730   -10.1710    -2.3940 hc         1 4LP       0.074450
     62 H25          0.3740    -6.1150    -3.8180 h1         1 4LP       0.091200
     63 H26         -0.6380    -7.4370    -3.2180 h1         1 4LP       0.091200
@<TRIPOS>BOND
     1     9    28 2   
     2     9     8 1   
     3    28    30 1   
     4     8    15 2   
     5    30    15 1   
     6    30    11 1   
     7    15    17 1   
     8    33    19 2   
     9    11     5 ar  
    10    11     4 ar  
    11     5     3 ar  
    12    17    19 1   
    13    17    29 2   
    14    19    18 1   
    15     4     2 ar  
    16     3     1 ar  
    17     2     1 ar  
    18    29    31 1   
    19    18    35 1   
    20    18    16 2   
    21    35    27 1   
    22    31    16 1   
    23    31    13 1   
    24    13     7 ar  
    25    13    14 ar  
    26     7     6 ar  
    27    14    36 1   
    28    14    10 ar  
    29     6    12 ar  
    30    10    12 ar  
    31    10    24 1   
    32    12    32 1   
    33    23    60 1   
    34    23    22 1   
    35    23    21 1   
    36    26    24 1   
    37    32    60 1   
    38    32    20 1   
    39    24    25 1   
    40    24    20 1   
    41    22    21 1   
    42    20    34 2   
    43     1    37 1   
    44     2    38 1   
    45     3    39 1   
    46     4    40 1   
    47     5    41 1   
    48     6    42 1   
    49     7    43 1   
    50     8    44 1   
    51     9    45 1   
    52    16    46 1   
    53    21    61 1   
    54    21    47 1   
    55    22    48 1   
    56    22    49 1   
    57    23    50 1   
    58    25    51 1   
    59    25    52 1   
    60    25    53 1   
    61    26    54 1   
    62    26    55 1   
    63    26    56 1   
    64    27    57 1   
    65    27    58 1   
    66    27    59 1   
    67    60    62 1   
    68    60    63 1   
@<TRIPOS>SUBSTRUCTURE
     1 4LP         1 TEMP              0 ****  ****    0 ROOT
