@<TRIPOS>MOLECULE
4LQ
   62    65     1     0     0
SMALL
bcc


@<TRIPOS>ATOM
      1 C3           0.0000     0.0000     0.0000 cc         1 4LQ       0.167800
      2 C4           0.7300     0.0090     2.0390 cc         1 4LQ       0.156800
      3 C6          -0.8930    -0.0010    -1.2130 c3         1 4LQ      -0.030700
      4 N1           1.7390     0.0000     1.2110 nd         1 4LQ      -0.324000
      5 N2           1.3060     0.0000     0.0000 nd         1 4LQ      -0.326000
      6 C7           0.9300    -2.5730     7.6390 ca         1 4LQ      -0.096400
      7 C9          -1.1960    -1.4440    -1.6230 c3         1 4LQ      -0.027400
      8 C10          0.9160    -1.4150     5.5650 c          1 4LQ       0.557100
      9 C11          0.2600    -3.5960     8.3450 ca         1 4LQ      -0.042000
     10 C12          0.8100     0.0170     3.5440 c3         1 4LQ      -0.005700
     11 C14          0.2510    -3.5700     9.7610 ca         1 4LQ      -0.024000
     12 C15          0.8360    -1.4220     4.0600 c3         1 4LQ      -0.102400
     13 O13          0.9480    -0.3610     6.1650 o          1 4LQ      -0.634100
     14 N8           0.9520    -2.5790     6.2440 ns         1 4LQ      -0.027100
     15 C19         -0.3970    -4.6360     7.6710 ca         1 4LQ      -0.107000
     16 C23         -1.0340    -5.6070     8.3840 ca         1 4LQ      -0.091000
     17 C24         -1.0440    -5.5820     9.7770 ca         1 4LQ      -0.104000
     18 C21         -0.4170    -4.5870    10.4650 ca         1 4LQ      -0.081000
     19 C20          0.9080    -2.5280    10.4390 ca         1 4LQ      -0.101000
     20 C18          1.5480    -1.5560     9.7320 ca         1 4LQ      -0.081000
     21 C17          1.5580    -1.5670     8.3400 ca         1 4LQ      -0.100000
     22 N5          -0.4020     0.0050     1.2940 na         1 4LQ       0.154300
     23 C16         -1.7810     0.0130     1.7870 c3         1 4LQ      -0.047700
     24 C22         -2.2580     1.4590     1.9480 c3         1 4LQ      -0.015100
     25 C25         -2.1030    -1.4440    -2.8550 c3         1 4LQ      -0.051700
     26 C30         -2.3040    -2.8810    -3.3400 c3         1 4LQ      -0.026900
     27 C29         -3.2120    -2.8820    -4.5710 c3         1 4LQ      -0.022900
     28 C28         -4.5670    -2.2720    -4.2070 c3         1 4LQ      -0.025400
     29 C27         -4.3660    -0.8340    -3.7220 c3         1 4LQ      -0.022900
     30 C26         -3.4590    -0.8340    -2.4900 c3         1 4LQ      -0.026900
     31 H1          -0.3940     0.5090    -2.0290 hc         1 4LQ       0.030700
     32 H2          -1.8190     0.5110    -0.9800 hc         1 4LQ       0.030700
     33 H3          -1.6940    -1.9540    -0.8080 hc         1 4LQ       0.021200
     34 H4          -0.2700    -1.9550    -1.8570 hc         1 4LQ       0.021200
     35 H5          -0.0540     0.5300     3.9490 hc         1 4LQ       0.042200
     36 H6           1.7120     0.5290     3.8550 hc         1 4LQ       0.042200
     37 H7           1.7000    -1.9350     3.6550 hc         1 4LQ       0.033700
     38 H8          -0.0660    -1.9340     3.7490 hc         1 4LQ       0.033700
     39 H9           1.0400    -3.4440     5.7480 hn         1 4LQ       0.171500
     40 H10         -0.3970    -4.6680     6.5880 ha         1 4LQ       0.098000
     41 H11         -1.5390    -6.4090     7.8600 ha         1 4LQ       0.100000
     42 H12         -1.5570    -6.3650    10.3210 ha         1 4LQ       0.102000
     43 H13         -0.4330    -4.5800    11.5480 ha         1 4LQ       0.107000
     44 H14          0.9110    -2.5030    11.5220 ha         1 4LQ       0.107000
     45 H15          2.0490    -0.7550    10.2620 ha         1 4LQ       0.104000
     46 H16          2.0740    -0.7820     7.8030 ha         1 4LQ       0.146000
     47 H17         -1.8240    -0.4890     2.7460 h1         1 4LQ       0.040200
     48 H18         -2.4200    -0.5020     1.0810 h1         1 4LQ       0.040200
     49 H19         -1.5850     2.1220     1.4180 hc         1 4LQ       0.018367
     50 H20         -2.2700     1.7210     2.9990 hc         1 4LQ       0.018367
     51 H21         -3.2570     1.5570     1.5400 hc         1 4LQ       0.018367
     52 H22         -1.6480    -0.8590    -3.6450 hc         1 4LQ       0.035700
     53 H23         -1.3440    -3.3100    -3.6000 hc         1 4LQ       0.015200
     54 H24         -2.7660    -3.4650    -2.5520 hc         1 4LQ       0.015200
     55 H25         -2.7530    -2.2940    -5.3570 hc         1 4LQ       0.013950
     56 H26         -3.3560    -3.9000    -4.9120 hc         1 4LQ       0.013950
     57 H27         -5.0240    -2.8570    -3.4180 hc         1 4LQ       0.012700
     58 H28         -5.2070    -2.2710    -5.0800 hc         1 4LQ       0.012700
     59 H29         -3.9040    -0.2500    -4.5090 hc         1 4LQ       0.013950
     60 H30         -5.3260    -0.4050    -3.4620 hc         1 4LQ       0.013950
     61 H31         -3.9180    -1.4230    -1.7050 hc         1 4LQ       0.015200
     62 H32         -3.3150     0.1840    -2.1490 hc         1 4LQ       0.015200
@<TRIPOS>BOND
     1     1     3 1   
     2     1     5 2   
     3     1    22 1   
     4     2     4 2   
     5     2    10 1   
     6     2    22 1   
     7     3     7 1   
     8     3    31 1   
     9     3    32 1   
    10     4     5 1   
    11     6     9 ar  
    12     6    14 1   
    13     6    21 ar  
    14     7    25 1   
    15     7    33 1   
    16     7    34 1   
    17     8    12 1   
    18     8    13 2   
    19     8    14 1   
    20     9    11 ar  
    21     9    15 ar  
    22    10    12 1   
    23    10    35 1   
    24    10    36 1   
    25    11    18 ar  
    26    11    19 ar  
    27    12    37 1   
    28    12    38 1   
    29    14    39 1   
    30    15    16 ar  
    31    15    40 1   
    32    16    17 ar  
    33    16    41 1   
    34    17    18 ar  
    35    17    42 1   
    36    18    43 1   
    37    19    20 ar  
    38    19    44 1   
    39    20    21 ar  
    40    20    45 1   
    41    21    46 1   
    42    22    23 1   
    43    23    24 1   
    44    23    47 1   
    45    23    48 1   
    46    24    49 1   
    47    24    50 1   
    48    24    51 1   
    49    25    26 1   
    50    25    30 1   
    51    25    52 1   
    52    26    27 1   
    53    26    53 1   
    54    26    54 1   
    55    27    28 1   
    56    27    55 1   
    57    27    56 1   
    58    28    29 1   
    59    28    57 1   
    60    28    58 1   
    61    29    30 1   
    62    29    59 1   
    63    29    60 1   
    64    30    61 1   
    65    30    62 1   
@<TRIPOS>SUBSTRUCTURE
     1 4LQ         1 TEMP              0 ****  ****    0 ROOT
