@<TRIPOS>MOLECULE
4LR
   19    18     1     0     0
SMALL
bcc


@<TRIPOS>ATOM
      1 OAD         0.2280   -0.2800   -0.8390 o         1 4LR     -0.934833
      2 PAJ         1.4730   -0.1480    0.0000 p5        1 4LR      1.311900
      3 OAE         1.2770    0.0860    1.4720 o         1 4LR     -0.934833
      4 OAC         2.6060   -1.0580   -0.3990 o         1 4LR     -0.934833
      5 OAH         2.0790    1.3970   -0.5450 os        1 4LR     -0.567200
      6 CAG         2.3070    1.3270   -1.9010 c3        1 4LR      0.191600
      7 CAF         2.8280    2.6250   -2.4230 c2        1 4LR     -0.062200
      8 CAI         3.1520    2.8920   -3.7010 c2        1 4LR     -0.276400
      9 CAB         3.6640    4.2200   -4.1180 c3        1 4LR     -0.019900
     10 CAA         3.0310    1.9030   -4.7950 c3        1 4LR     -0.019900
     11 H3          1.3430    1.0610   -2.4320 h1        1 4LR      0.039700
     12 H4          3.0520    0.5020   -2.1160 h1        1 4LR      0.039700
     13 H5          2.9400    3.4060   -1.6500 ha        1 4LR      0.109000
     14 H6          4.6830    4.1240   -4.5720 hc        1 4LR      0.009533
     15 H7          2.9910    4.6770   -4.8870 hc        1 4LR      0.009533
     16 H8          3.7330    4.9240   -3.2530 hc        1 4LR      0.009533
     17 H9          4.0270    1.7260   -5.2760 hc        1 4LR      0.009533
     18 H10         2.3320    2.2760   -5.5860 hc        1 4LR      0.009533
     19 H11         2.6440    0.9260   -4.4120 hc        1 4LR      0.009533
@<TRIPOS>BOND
     1    1    2 1   
     2    2    3 1   
     3    2    4 1   
     4    2    5 1   
     5    5    6 1   
     6    6    7 1   
     7    6   11 1   
     8    6   12 1   
     9    7    8 2   
    10    7   13 1   
    11    8    9 1   
    12    8   10 1   
    13    9   14 1   
    14    9   15 1   
    15    9   16 1   
    16   10   17 1   
    17   10   18 1   
    18   10   19 1   
@<TRIPOS>SUBSTRUCTURE
     1 4LR         1 TEMP              0 ****  ****    0 ROOT
