@<TRIPOS>MOLECULE
molecule
   19    18     1     0     0
SMALL
bcc


@<TRIPOS>ATOM
      1 OAD          0.0000     0.0000     0.0000 o          1 4LR      -0.910167
      2 PAJ          1.6100     0.0000     0.0000 p5         1 4LR       1.180900
      3 OAE          2.1470     0.0000     1.5180 o          1 4LR      -0.910167
      4 OAC          2.1040    -1.2070    -0.6990 o          1 4LR      -0.910167
      5 OAH          2.1460     1.3160    -0.7580 os         1 4LR      -0.575200
      6 CAG          1.9280     1.5550    -2.1500 c3         1 4LR       0.237600
      7 CAF          2.5560     2.8690    -2.5380 c2         1 4LR      -0.103200
      8 CAI          3.2530     2.9600    -3.6440 c2         1 4LR      -0.232400
      9 CAB          4.0130     4.2240    -3.9520 c3         1 4LR      -0.031900
     10 CAA          3.2950     1.8020    -4.6060 c3         1 4LR      -0.031900
     11 H3           0.8630     1.5910    -2.3480 h1         1 4LR       0.022200
     12 H4           2.3760     0.7560    -2.7280 h1         1 4LR       0.022200
     13 H5           2.5280     3.7030    -1.8470 ha         1 4LR       0.114000
     14 H6           4.6050     4.0800    -4.8480 hc         1 4LR       0.021367
     15 H7           3.3150     5.0370    -4.1080 hc         1 4LR       0.021367
     16 H8           4.6670     4.4640    -3.1230 hc         1 4LR       0.021367
     17 H9           2.2920     1.4220    -4.7570 hc         1 4LR       0.021367
     18 H10          3.7010     2.1340    -5.5540 hc         1 4LR       0.021367
     19 H11          3.9210     1.0170    -4.2000 hc         1 4LR       0.021367
@<TRIPOS>BOND
     1     4     2 1
     2     3     2 1
     3     2     1 1
     4     2     5 1
     5     6     5 1
     6     6     7 1
     7     7     8 2
     8     9     8 1
     9     8    10 1
    10     6    11 1
    11     6    12 1
    12     7    13 1
    13     9    14 1
    14     9    15 1
    15     9    16 1
    16    10    17 1
    17    10    18 1
    18    10    19 1
@<TRIPOS>SUBSTRUCTURE
     1 4LR         1 TEMP              0 ****  ****    0 ROOT
