@<TRIPOS>MOLECULE
molecule
   65    67     1     0     0
SMALL
bcc


@<TRIPOS>ATOM
      1 C4A          0.0000     0.0000     0.0000 cc         1 4LS      -0.236900
      2 CAA          4.7650     0.8040    -1.9990 c3         1 4LS      -0.095400
      3 CAC          4.0790     0.0040     5.0160 c3         1 4LS      -0.038800
      4 CAD          5.5580     0.5720     2.6080 c3         1 4LS      -0.039800
      5 OAL         -3.6660    -7.6180     7.0590 o          1 4LS      -0.905833
      6 PBK         -2.1930    -7.7530     7.0170 p5         1 4LS       1.172900
      7 OAM         -1.5750    -7.3470     8.4470 o          1 4LS      -0.905833
      8 OAH         -1.8180    -9.2840     6.6860 o          1 4LS      -0.905833
      9 CAR         -1.8320    -5.3870     5.8300 c3         1 4LS       0.199400
     10 CBF         -1.1080    -4.7820     4.6260 c3         1 4LS       0.123100
     11 OAI         -1.6680    -5.3050     3.4190 oh         1 4LS      -0.622800
     12 CBH         -1.2690    -3.2600     4.6450 c3         1 4LS       0.131100
     13 OAK         -0.7090    -2.7360     5.8510 oh         1 4LS      -0.611800
     14 CBG         -0.5450    -2.6550     3.4410 c3         1 4LS       0.121100
     15 OAJ         -1.1060    -3.1780     2.2350 oh         1 4LS      -0.587800
     16 CAS         -0.7070    -1.1340     3.4600 c3         1 4LS       0.034300
     17 N10         -0.0020    -0.5530     2.3140 na         1 4LS      -0.183100
     18 C9A          1.3720    -0.2760     2.3980 ca         1 4LS       0.012700
     19 C9           2.0180    -0.2740     3.6200 ca         1 4LS      -0.127000
     20 C8           3.3740     0.0010     3.6830 ca         1 4LS      -0.102300
     21 C7           4.0830     0.2730     2.5290 ca         1 4LS      -0.074300
     22 C6           3.4430     0.2740     1.3010 ca         1 4LS      -0.182000
     23 C5A          2.0890     0.0000     1.2320 ca         1 4LS       0.081700
     24 N5           1.4170     0.0000     0.0000 na         1 4LS      -0.143100
     25 CAQ          2.1650    -0.0010    -1.2590 c3         1 4LS       0.078500
     26 CAN          2.4220     1.4190    -1.6920 c2         1 4LS      -0.483200
     27 CAW          3.6410     1.8080    -1.9750 c2         1 4LS       0.025600
     28 CAB          3.9180     3.2580    -2.2770 c3         1 4LS      -0.095400
     29 C11         -0.6850    -0.2740     1.1510 cd         1 4LS       0.208300
     30 N1          -2.0600    -0.2680     1.1340 ns         1 4LS      -0.437100
     31 C2          -2.7220     0.0040    -0.0060 c          1 4LS       0.817500
     32 O2          -3.9380     0.0050    -0.0040 o          1 4LS      -0.661500
     33 N3          -2.0630     0.2740    -1.1470 ns         1 4LS      -0.563500
     34 C4          -0.7140     0.2860    -1.1750 c          1 4LS       0.732100
     35 O4          -0.1220     0.5310    -2.2120 o          1 4LS      -0.656500
     36 H2           5.6060     1.2180    -2.5430 hc         1 4LS       0.047867
     37 H3           4.4290    -0.1020    -2.4880 hc         1 4LS       0.047867
     38 H4           5.0680     0.5770    -0.9850 hc         1 4LS       0.047867
     39 H5           3.3540    -0.1460     5.8070 hc         1 4LS       0.040700
     40 H6           4.5780     0.9540     5.1580 hc         1 4LS       0.040700
     41 H7           4.8090    -0.7960     5.0400 hc         1 4LS       0.040700
     42 H8           5.9610     0.6650     1.6060 hc         1 4LS       0.036367
     43 H9           5.7110     1.4990     3.1460 hc         1 4LS       0.036367
     44 H10          6.0630    -0.2340     3.1270 hc         1 4LS       0.036367
     45 H13         -2.8970    -5.2100     5.7370 h1         1 4LS       0.021200
     46 H14         -1.4670    -4.9250     6.7400 h1         1 4LS       0.021200
     47 H15         -0.0550    -5.0340     4.6730 h1         1 4LS       0.036700
     48 H16         -1.2890    -6.1480     3.2360 ho         1 4LS       0.420000
     49 H17         -2.3220    -3.0080     4.5970 h1         1 4LS       0.049700
     50 H18         -1.4010    -2.4280     6.4110 ho         1 4LS       0.409000
     51 H19          0.5070    -2.9070     3.4890 h1         1 4LS       0.054700
     52 H20         -0.4770    -3.7410     1.8140 ho         1 4LS       0.413000
     53 H21         -1.7590    -0.8820     3.4030 h1         1 4LS       0.063200
     54 H22         -0.2900    -0.7380     4.3780 h1         1 4LS       0.063200
     55 H23          1.4490    -0.4080     4.5330 ha         1 4LS       0.152000
     56 H24          4.0180     0.3980     0.3910 ha         1 4LS       0.134000
     57 H25          1.5890    -0.5120    -2.0210 h1         1 4LS       0.043700
     58 H26          3.1100    -0.5120    -1.1180 h1         1 4LS       0.043700
     59 H27          2.3110     0.6160    -2.4110 ha         1 4LS       0.322000
     60 H30          3.1060     3.8680    -1.9000 hc         1 4LS       0.047867
     61 H31          4.8440     3.5560    -1.8000 hc         1 4LS       0.047867
     62 H32          4.0050     3.3940    -3.3490 hc         1 4LS       0.047867
     63 H33         -2.5780     0.4730    -1.9820 hn         1 4LS       0.357500
     64 H1          -2.5700    -0.4650     1.9720 hn         1 4LS       0.374500
     65 OAV         -1.5840    -6.7930     5.8760 os         1 4LS      -0.577200
@<TRIPOS>BOND
     1    35    34 2
     2    33    34 1
     3    33    31 1
     4    32    31 2
     5    34     1 1
     6    31    30 1
     7     5     6 1
     8     8     6 1
     9     1    24 1
    10     1    29 2
    11    30    29 1
    12     6     7 1
    13     6    65 1
    14    24    25 1
    15    24    23 1
    16    29    17 1
    17    25    26 1
    18    23    22 ar
    19    23    18 ar
    20     9    65 1
    21     9    10 1
    22    22    21 ar
    23    17    18 1
    24    17    16 1
    25    18    19 ar
    26    15    14 1
    27    26    27 2
    28    14    16 1
    29    14    12 1
    30    21     4 1
    31    21    20 ar
    32    10    12 1
    33    10    11 1
    34    19    20 ar
    35    13    12 1
    36    20     3 1
    37     2    27 1
    38    27    28 1
    39     2    36 1
    40     2    37 1
    41     2    38 1
    42     3    39 1
    43     3    40 1
    44     3    41 1
    45     4    42 1
    46     4    43 1
    47     4    44 1
    48     9    45 1
    49     9    46 1
    50    10    47 1
    51    11    48 1
    52    12    49 1
    53    13    50 1
    54    14    51 1
    55    15    52 1
    56    16    53 1
    57    16    54 1
    58    19    55 1
    59    22    56 1
    60    25    57 1
    61    25    58 1
    62    26    59 1
    63    28    60 1
    64    28    61 1
    65    28    62 1
    66    33    63 1
    67    30    64 1
@<TRIPOS>SUBSTRUCTURE
     1 4LS         1 TEMP              0 ****  ****    0 ROOT
