@<TRIPOS>MOLECULE
4LS
   65    67     1     0     0
SMALL
bcc


@<TRIPOS>ATOM
      1 C4A          0.0000     0.0000     0.0000 cc         1 4LS      -0.404900
      2 CAA          4.7650     0.8040    -1.9990 c3         1 4LS       0.061600
      3 CAC          4.0790     0.0040     5.0160 c3         1 4LS       0.069200
      4 CAD          5.5580     0.5720     2.6080 c3         1 4LS       0.066200
      5 OAL         -3.6660    -7.6180     7.0590 o          1 4LS      -0.726833
      6 PBK         -2.1930    -7.7530     7.0170 p5         1 4LS       0.686900
      7 OAM         -1.5750    -7.3470     8.4470 o          1 4LS      -0.726833
      8 OAH         -1.8180    -9.2840     6.6860 o          1 4LS      -0.726833
      9 CAR         -1.8320    -5.3870     5.8300 c3         1 4LS       0.260400
     10 CBF         -1.1080    -4.7820     4.6260 c3         1 4LS       0.142100
     11 OAI         -1.6680    -5.3050     3.4190 oh         1 4LS      -0.606800
     12 CBH         -1.2690    -3.2600     4.6450 c3         1 4LS       0.164100
     13 OAK         -0.7090    -2.7360     5.8510 oh         1 4LS      -0.590800
     14 CBG         -0.5450    -2.6550     3.4410 c3         1 4LS       0.156100
     15 OAJ         -1.1060    -3.1780     2.2350 oh         1 4LS      -0.575800
     16 CAS         -0.7070    -1.1340     3.4600 c3         1 4LS      -0.067700
     17 N10         -0.0020    -0.5530     2.3140 na         1 4LS       0.253900
     18 C9A          1.3720    -0.2760     2.3980 ca         1 4LS      -0.146300
     19 C9           2.0180    -0.2740     3.6200 ca         1 4LS      -0.103000
     20 C8           3.3740     0.0010     3.6830 ca         1 4LS      -0.115300
     21 C7           4.0830     0.2730     2.5290 ca         1 4LS      -0.080300
     22 C6           3.4430     0.2740     1.3010 ca         1 4LS      -0.183000
     23 C5A          2.0890     0.0000     1.2320 ca         1 4LS      -0.064300
     24 N5           1.4170     0.0000     0.0000 na         1 4LS       0.247900
     25 CAQ          2.1650    -0.0010    -1.2590 c3         1 4LS      -0.000500
     26 CAN          2.4220     1.4190    -1.6920 c2         1 4LS      -0.134200
     27 CAW          3.6410     1.8080    -1.9750 c2         1 4LS      -0.190400
     28 CAB          3.9180     3.2580    -2.2770 c3         1 4LS       0.061600
     29 C11         -0.6850    -0.2740     1.1510 cd         1 4LS      -0.114700
     30 N1          -2.0600    -0.2680     1.1340 ns         1 4LS       0.033900
     31 C2          -2.7220     0.0040    -0.0060 c          1 4LS       0.580500
     32 O2          -3.9380     0.0050    -0.0040 o          1 4LS      -0.724500
     33 N3          -2.0630     0.2740    -1.1470 ns         1 4LS      -0.130500
     34 C4          -0.7140     0.2860    -1.1750 c          1 4LS       0.642100
     35 O4          -0.1220     0.5310    -2.2120 o          1 4LS      -0.723500
     36 H2           4.4070    -0.1300    -2.4150 hc         1 4LS       0.002700
     37 H3           5.1210     0.6370    -0.9900 hc         1 4LS       0.002700
     38 H4           5.5750     1.1840    -2.6100 hc         1 4LS       0.002700
     39 H5           3.3520    -0.1310     5.8080 hc         1 4LS       0.004367
     40 H6           4.7990    -0.8050     5.0450 hc         1 4LS       0.004367
     41 H7           4.5900     0.9490     5.1520 hc         1 4LS       0.004367
     42 H8           5.9670     0.6360     1.6060 hc         1 4LS       0.001367
     43 H9           6.0590    -0.2200     3.1520 hc         1 4LS       0.001367
     44 H10          5.7090     1.5140     3.1200 hc         1 4LS       0.001367
     45 H13         -2.8970    -5.2110     5.7370 h1         1 4LS      -0.020300
     46 H14         -1.4680    -4.9250     6.7400 h1         1 4LS      -0.020300
     47 H15         -0.0550    -5.0340     4.6730 h1         1 4LS       0.002700
     48 H16         -1.2800    -6.1430     3.2300 ho         1 4LS       0.404000
     49 H17         -2.3220    -3.0080     4.5970 h1         1 4LS       0.014700
     50 H18         -1.4020    -2.4320     6.4130 ho         1 4LS       0.394000
     51 H19          0.5070    -2.9070     3.4890 h1         1 4LS       0.020700
     52 H20         -0.4770    -3.7410     1.8140 ho         1 4LS       0.400000
     53 H21         -1.7590    -0.8820     3.4020 h1         1 4LS       0.041200
     54 H22         -0.2900    -0.7380     4.3780 h1         1 4LS       0.041200
     55 H23          1.4510    -0.4150     4.5320 ha         1 4LS       0.128000
     56 H24          4.0160     0.4090     0.3920 ha         1 4LS       0.130000
     57 H25          3.1100    -0.5120    -1.1180 h1         1 4LS       0.049700
     58 H26          1.5880    -0.5120    -2.0210 h1         1 4LS       0.049700
     59 H27          1.6150     2.1420    -1.6750 ha         1 4LS       0.121000
     60 H30          4.8800     3.5360    -1.8620 hc         1 4LS       0.002700
     61 H31          3.9310     3.4080    -3.3500 hc         1 4LS       0.002700
     62 H32          3.1430     3.8740    -1.8360 hc         1 4LS       0.002700
     63 H33         -2.5780     0.4730    -1.9820 hn         1 4LS       0.195500
     64 H1          -2.5700    -0.4670     1.9720 hn         1 4LS       0.208500
     65 OAV         -1.5840    -6.7930     5.8760 os         1 4LS      -0.480200
@<TRIPOS>BOND
     1     1    24 1   
     2     1    29 2   
     3     1    34 1   
     4     2    27 1   
     5     2    36 1   
     6     2    37 1   
     7     2    38 1   
     8     3    20 1   
     9     3    39 1   
    10     3    40 1   
    11     3    41 1   
    12     4    21 1   
    13     4    42 1   
    14     4    43 1   
    15     4    44 1   
    16     5     6 1   
    17     6     7 1   
    18     6     8 1   
    19     6    65 1   
    20     9    10 1   
    21     9    45 1   
    22     9    46 1   
    23     9    65 1   
    24    10    11 1   
    25    10    12 1   
    26    10    47 1   
    27    11    48 1   
    28    12    13 1   
    29    12    14 1   
    30    12    49 1   
    31    13    50 1   
    32    14    15 1   
    33    14    16 1   
    34    14    51 1   
    35    15    52 1   
    36    16    17 1   
    37    16    53 1   
    38    16    54 1   
    39    17    18 1   
    40    17    29 1   
    41    18    19 ar  
    42    18    23 ar  
    43    19    20 ar  
    44    19    55 1   
    45    20    21 ar  
    46    21    22 ar  
    47    22    23 ar  
    48    22    56 1   
    49    23    24 1   
    50    24    25 1   
    51    25    26 1   
    52    25    57 1   
    53    25    58 1   
    54    26    27 2   
    55    26    59 1   
    56    27    28 1   
    57    28    60 1   
    58    28    61 1   
    59    28    62 1   
    60    29    30 1   
    61    30    31 1   
    62    30    64 1   
    63    31    32 2   
    64    31    33 1   
    65    33    34 1   
    66    33    63 1   
    67    34    35 2   
@<TRIPOS>SUBSTRUCTURE
     1 4LS         1 TEMP              0 ****  ****    0 ROOT
