@<TRIPOS>MOLECULE
molecule
   10     9     1     0     0
SMALL
bcc


@<TRIPOS>ATOM
      1 C            0.0000     0.0000     0.0000 c          1 4LT       0.875600
      2 O           -0.6050    -0.7430     0.7360 o          1 4LT      -0.837300
      3 CA           1.5070     0.0000     0.0000 c3         1 4LT       0.058600
      4 CB           2.0170     0.0000     1.4430 c3         1 4LT      -0.104100
      5 F            1.9730    -1.1430    -0.6590 f          1 4LT      -0.273300
      6 O1          -0.6700     0.8220    -0.8230 o          1 4LT      -0.837300
      7 HA           1.8690     0.8840    -0.5110 h1         1 4LT       0.036700
      8 HB3          1.7870    -0.9510     1.9080 hc         1 4LT       0.027033
      9 HB2          3.0900     0.1530     1.4470 hc         1 4LT       0.027033
     10 HB1          1.5360     0.7980     1.9960 hc         1 4LT       0.027033
@<TRIPOS>BOND
     1     2     1 1
     2     1     3 1
     3     5     3 1
     4     3     4 1
     5     1     6 1
     6     3     7 1
     7     4     8 1
     8     4     9 1
     9     4    10 1
@<TRIPOS>SUBSTRUCTURE
     1 4LT         1 TEMP              0 ****  ****    0 ROOT
