@<TRIPOS>MOLECULE
4LV
   21    21     1     0     0
SMALL
bcc


@<TRIPOS>ATOM
      1 C1         -0.0110   -0.1030   -0.3070 c3        1 4LV     -0.063900
      2 OXT         3.5660   -0.0600   -1.1570 o         1 4LV     -0.830800
      3 C           2.3260    0.1540   -1.2760 c         1 4LV      0.896800
      4 O           1.7720    0.5080   -2.3550 o         1 4LV     -0.830800
      5 CA          1.4390   -0.0210   -0.0410 ce        1 4LV     -0.116400
      6 CB          2.0070   -0.0640    1.1760 cf        1 4LV     -0.192200
      7 CG          1.3530   -0.2070    2.4630 ca        1 4LV      0.005200
      8 CD2         0.2310   -1.0280    2.6540 ca        1 4LV     -0.141000
      9 CE2        -0.3550   -1.1520    3.9120 ca        1 4LV     -0.137000
     10 CZ          0.1690   -0.4630    5.0050 ca        1 4LV     -0.166000
     11 CE1         1.2910    0.3500    4.8310 ca        1 4LV     -0.137000
     12 CD1         1.8790    0.4740    3.5770 ca        1 4LV     -0.141000
     13 H1         -0.2530    0.4830   -1.2310 hc        1 4LV      0.035367
     14 H2         -0.3030   -1.1690   -0.4910 hc        1 4LV      0.035367
     15 H3         -0.6190    0.2880    0.5460 hc        1 4LV      0.035367
     16 H5          3.1100    0.0340    1.2250 ha        1 4LV      0.149000
     17 H6         -0.1800   -1.5850    1.7990 ha        1 4LV      0.134000
     18 H7         -1.2340   -1.7980    4.0430 ha        1 4LV      0.111000
     19 H8         -0.2950   -0.5590    5.9950 ha        1 4LV      0.109000
     20 H9          1.7100    0.8940    5.6890 ha        1 4LV      0.111000
     21 H10         2.7650    1.1130    3.4430 ha        1 4LV      0.134000
@<TRIPOS>BOND
     1    1    5 1   
     2    1   13 1   
     3    1   14 1   
     4    1   15 1   
     5    2    3 1   
     6    3    4 1   
     7    3    5 1   
     8    5    6 2   
     9    6    7 1   
    10    6   16 1   
    11    7    8 ar  
    12    7   12 ar  
    13    8    9 ar  
    14    8   17 1   
    15    9   10 ar  
    16    9   18 1   
    17   10   11 ar  
    18   10   19 1   
    19   11   12 ar  
    20   11   20 1   
    21   12   21 1   
@<TRIPOS>SUBSTRUCTURE
     1 4LV         1 TEMP              0 ****  ****    0 ROOT
