@<TRIPOS>MOLECULE
molecule
   21    21     1     0     0
SMALL
bcc


@<TRIPOS>ATOM
      1 C1           0.0000     0.0000     0.0000 c3         1 4LV      -0.131900
      2 OXT          1.5640     0.0020    -2.4350 o          1 4LV      -0.802300
      3 C            2.2380     0.0020    -1.2660 c          1 4LV       0.852800
      4 O            3.4540     0.0030    -1.2670 o          1 4LV      -0.802300
      5 CA           1.5060     0.0000     0.0000 ce         1 4LV       0.078600
      6 CB           2.1820     0.0000     1.1680 cf         1 4LV      -0.405200
      7 CG           1.4560    -0.1690     2.4370 ca         1 4LV      -0.054800
      8 CD2          0.3110    -0.9720     2.4900 ca         1 4LV      -0.162000
      9 CE2         -0.3640    -1.1260     3.6830 ca         1 4LV      -0.131500
     10 CZ           0.0900    -0.4890     4.8250 ca         1 4LV      -0.171000
     11 CE1          1.2210     0.3070     4.7810 ca         1 4LV      -0.131500
     12 CD1          1.9100     0.4660     3.5970 ca         1 4LV      -0.162000
     13 H1          -0.3610     0.5300     0.8730 hc         1 4LV       0.050033
     14 H2          -0.3610     0.4910    -0.8960 hc         1 4LV       0.050033
     15 H3          -0.3610    -1.0210     0.0220 hc         1 4LV       0.050033
     16 H5           1.7190     0.8460     1.6620 ha         1 4LV       0.264000
     17 H6          -0.0450    -1.4710     1.5960 ha         1 4LV       0.141000
     18 H7          -1.2500    -1.7470     3.7260 ha         1 4LV       0.110500
     19 H8          -0.4460    -0.6120     5.7590 ha         1 4LV       0.107000
     20 H9           1.5700     0.8000     5.6800 ha         1 4LV       0.110500
     21 H10          2.7960     1.0900     3.5640 ha         1 4LV       0.141000
@<TRIPOS>BOND
     1     4     3 1
     2     2     3 1
     3     3     5 1
     4     1     5 1
     5     5     6 2
     6     6     7 1
     7     8     9 ar
     8     8     7 ar
     9     9    10 ar
    10     7    12 ar
    11    10    11 ar
    12    12    11 ar
    13     1    13 1
    14     1    14 1
    15     1    15 1
    16     6    16 1
    17     8    17 1
    18     9    18 1
    19    10    19 1
    20    11    20 1
    21    12    21 1
@<TRIPOS>SUBSTRUCTURE
     1 4LV         1 TEMP              0 ****  ****    0 ROOT
