@<TRIPOS>MOLECULE
molecule
   18    18     1     0     0
SMALL
bcc


@<TRIPOS>ATOM
      1 F1           0.0000     0.0000     0.0000 f          1 4LW      -0.192500
      2 CA           1.3510     0.0000     0.0000 ce         1 4LW       0.265300
      3 C            2.0830     0.0000     1.2690 c          1 4LW       0.847800
      4 O            3.2990    -0.0000     1.2700 o          1 4LW      -0.780300
      5 OXT          1.4080    -0.0000     2.4370 o          1 4LW      -0.780300
      6 CB           2.0260    -0.0050    -1.1680 cf         1 4LW      -0.443200
      7 CG           1.2980     0.1340    -2.4400 ca         1 4LW      -0.048800
      8 CD1         -0.0570     0.4790    -2.4400 ca         1 4LW      -0.165500
      9 CE1         -0.7320     0.6080    -3.6350 ca         1 4LW      -0.132000
     10 CZ          -0.0720     0.3940    -4.8330 ca         1 4LW      -0.167000
     11 CE2          1.2680     0.0520    -4.8420 ca         1 4LW      -0.132000
     12 CD2          1.9590    -0.0740    -3.6550 ca         1 4LW      -0.165500
     13 H2           1.5640    -0.8580    -1.6500 ha         1 4LW       0.251000
     14 H3          -0.5750     0.6460    -1.5030 ha         1 4LW       0.156500
     15 H4          -1.7810     0.8750    -3.6370 ha         1 4LW       0.112000
     16 H5          -0.6090     0.4950    -5.7690 ha         1 4LW       0.108000
     17 H6           1.7780    -0.1110    -5.7840 ha         1 4LW       0.112000
     18 H7           3.0090    -0.3420    -3.6630 ha         1 4LW       0.156500
@<TRIPOS>BOND
     1     4     3 1
     2     3     5 1
     3     3     2 1
     4     1     2 1
     5     2     6 2
     6     6     7 1
     7    12     7 ar
     8    12    11 ar
     9     7     8 ar
    10    11    10 ar
    11     8     9 ar
    12    10     9 ar
    13     6    13 1
    14     8    14 1
    15     9    15 1
    16    10    16 1
    17    11    17 1
    18    12    18 1
@<TRIPOS>SUBSTRUCTURE
     1 4LW         1 TEMP              0 ****  ****    0 ROOT
