@<TRIPOS>MOLECULE
4LW
   18    18     1     0     0
SMALL
bcc


@<TRIPOS>ATOM
      1 F1          0.0320    0.3110    0.3970 f         1 4LW     -0.188500
      2 CA          1.3370    0.1000    0.1270 ce        1 4LW      0.094300
      3 C           2.2550   -0.0670    1.3620 c         1 4LW      0.902800
      4 O           1.7150    0.0070    2.4930 o         1 4LW     -0.802800
      5 OXT         3.4770   -0.2660    1.1350 o         1 4LW     -0.802800
      6 CB          1.8400    0.0340   -1.1310 cf        1 4LW     -0.255200
      7 CG          1.1700    0.1610   -2.4030 ca        1 4LW      0.014200
      8 CD1        -0.2090    0.3950   -2.5340 ca        1 4LW     -0.146500
      9 CE1        -0.7970    0.5080   -3.7910 ca        1 4LW     -0.134000
     10 CZ         -0.0260    0.3910   -4.9460 ca        1 4LW     -0.170000
     11 CE2         1.3450    0.1590   -4.8340 ca        1 4LW     -0.134000
     12 CD2         1.9370    0.0450   -3.5810 ca        1 4LW     -0.146500
     13 H2          2.9330   -0.1450   -1.1790 ha        1 4LW      0.163000
     14 H3         -0.8320    0.4900   -1.6310 ha        1 4LW      0.137000
     15 H4         -1.8780    0.6920   -3.8710 ha        1 4LW      0.111000
     16 H5         -0.4930    0.4810   -5.9360 ha        1 4LW      0.109000
     17 H6          1.9600    0.0650   -5.7400 ha        1 4LW      0.111000
     18 H7          3.0180   -0.1380   -3.5000 ha        1 4LW      0.137000
@<TRIPOS>BOND
     1    1    2 1   
     2    2    3 1   
     3    2    6 2   
     4    3    4 1   
     5    3    5 1   
     6    6    7 1   
     7    6   13 1   
     8    7    8 ar  
     9    7   12 ar  
    10    8    9 ar  
    11    8   14 1   
    12    9   10 ar  
    13    9   15 1   
    14   10   11 ar  
    15   10   16 1   
    16   11   12 ar  
    17   11   17 1   
    18   12   18 1   
@<TRIPOS>SUBSTRUCTURE
     1 4LW         1 TEMP              0 ****  ****    0 ROOT
