@<TRIPOS>MOLECULE
4M0
   19    19     1     0     0
SMALL
bcc


@<TRIPOS>ATOM
      1 OAC          0.0000     0.0000     0.0000 o          1 4M0      -0.888800
      2 CAH          1.2150     0.0000     0.0000 c          1 4M0       0.977200
      3 OAD          1.8890     0.0000     1.1670 o          1 4M0      -0.888800
      4 CAK          1.9520    -0.0080    -1.2760 ca         1 4M0      -0.118600
      5 CAF          3.3440     0.1150    -1.2850 ca         1 4M0      -0.061000
      6 CAE          4.0260     0.1080    -2.4810 ca         1 4M0      -0.148000
      7 CAI          3.3400    -0.0210    -3.6790 ca         1 4M0      -0.122300
      8 CAA          4.0990    -0.0270    -4.9810 c3         1 4M0       0.073200
      9 CAG          1.9650    -0.1430    -3.6870 ca         1 4M0      -0.157000
     10 CAJ          1.2600    -0.1440    -2.4910 ca         1 4M0       0.057600
     11 NAB         -0.1230    -0.2680    -2.4960 nv         1 4M0      -0.524200
     12 H2           3.8850     0.2160    -0.3530 ha         1 4M0       0.126000
     13 H3           5.1050     0.2040    -2.4860 ha         1 4M0       0.085000
     14 H4           3.6050     0.6260    -5.6900 hc         1 4M0      -0.007967
     15 H5           4.1280    -1.0350    -5.3780 hc         1 4M0      -0.007967
     16 H6           5.1100     0.3240    -4.8110 hc         1 4M0      -0.007967
     17 H7           1.4370    -0.2450    -4.6270 ha         1 4M0       0.090000
     18 H8          -0.5440    -1.1750    -2.4590 hn         1 4M0       0.261800
     19 H9          -0.6980     0.5470    -2.5800 hn         1 4M0       0.261800
@<TRIPOS>BOND
     1     1     2 1   
     2     2     3 1   
     3     2     4 1   
     4     4     5 ar  
     5     4    10 ar  
     6     5     6 ar  
     7     5    12 1   
     8     6     7 ar  
     9     6    13 1   
    10     7     8 1   
    11     7     9 ar  
    12     8    14 1   
    13     8    15 1   
    14     8    16 1   
    15     9    10 ar  
    16     9    17 1   
    17    10    11 1   
    18    11    18 1   
    19    11    19 1   
@<TRIPOS>SUBSTRUCTURE
     1 4M0         1 TEMP              0 ****  ****    0 ROOT
