@<TRIPOS>MOLECULE
molecule
   19    19     1     0     0
SMALL
bcc


@<TRIPOS>ATOM
      1 OAC          0.0000     0.0000     0.0000 o          1 4M0      -0.839300
      2 CAH          1.2150     0.0000     0.0000 c          1 4M0       0.884200
      3 OAD          1.8890     0.0000     1.1670 o          1 4M0      -0.839300
      4 CAK          1.9520    -0.0080    -1.2760 ca         1 4M0      -0.119600
      5 CAF          3.3440     0.1150    -1.2850 ca         1 4M0      -0.091000
      6 CAE          4.0260     0.1080    -2.4810 ca         1 4M0      -0.168000
      7 CAI          3.3400    -0.0210    -3.6790 ca         1 4M0      -0.112300
      8 CAA          4.0990    -0.0270    -4.9810 c3         1 4M0      -0.037800
      9 CAG          1.9650    -0.1430    -3.6870 ca         1 4M0      -0.177000
     10 CAJ          1.2600    -0.1440    -2.4910 ca         1 4M0       0.187600
     11 NAB         -0.1230    -0.2680    -2.4960 nv         1 4M0      -0.960200
     12 H2           3.8850     0.2160    -0.3530 ha         1 4M0       0.152000
     13 H3           5.1050     0.2040    -2.4860 ha         1 4M0       0.102000
     14 H4           3.6050     0.6260    -5.6900 hc         1 4M0       0.024700
     15 H5           4.1280    -1.0350    -5.3780 hc         1 4M0       0.024700
     16 H6           5.1100     0.3240    -4.8110 hc         1 4M0       0.024700
     17 H7           1.4370    -0.2450    -4.6270 ha         1 4M0       0.108000
     18 H8          -0.5440    -1.1750    -2.4590 hn         1 4M0       0.417800
     19 H9          -0.6980     0.5470    -2.5800 hn         1 4M0       0.417800
@<TRIPOS>BOND
     1     8     7 1   
     2     9     7 ar  
     3     9    10 ar  
     4     7     6 ar  
     5    11    10 1   
     6    10     4 ar  
     7     6     5 ar  
     8     4     5 ar  
     9     4     2 1   
    10     1     2 1   
    11     2     3 1   
    12     5    12 1   
    13     6    13 1   
    14     8    14 1   
    15     8    15 1   
    16     8    16 1   
    17     9    17 1   
    18    11    18 1   
    19    11    19 1   
@<TRIPOS>SUBSTRUCTURE
     1 4M0         1 TEMP              0 ****  ****    0 ROOT
