@<TRIPOS>MOLECULE
molecule
   57    61     1     0     0
SMALL
bcc


@<TRIPOS>ATOM
      1 C21          0.0000     0.0000     0.0000 ca         1 4M1      -0.122000
      2 C22          1.3810     0.0000     0.0000 ca         1 4M1      -0.118500
      3 C20         -0.6920    -0.0010     1.1970 ca         1 4M1      -0.118500
      4 C23          2.0730     0.0000     1.1970 ca         1 4M1      -0.127500
      5 C19         -0.0010    -0.0070     2.3950 ca         1 4M1      -0.127500
      6 C2          -0.2970     3.8630     5.7650 ca         1 4M1      -0.127000
      7 C5           2.3230     3.9530     6.7030 ca         1 4M1      -0.066000
      8 C12          4.1900    -6.4890     3.1370 ca         1 4M1      -0.148500
      9 C14          2.0730    -6.6230     1.9930 ca         1 4M1      -0.148500
     10 C17          5.0070    -8.8640     1.6520 cc         1 4M1       0.361900
     11 C16          3.0940    -8.9890     0.6270 cc         1 4M1       0.361900
     12 C10          2.4730    -4.8680     3.5890 ca         1 4M1      -0.136600
     13 C18          1.3820    -0.0000     2.3950 ca         1 4M1      -0.093300
     14 C1           0.1030     4.8460     6.6450 ca         1 4M1      -0.063300
     15 C            1.4110     4.8860     7.1090 ca         1 4M1      -0.099300
     16 C3           0.6140     2.9040     5.3450 ca         1 4M1      -0.091200
     17 C13          3.3500    -7.1200     2.2270 ca         1 4M1       0.043800
     18 C4           1.9370     2.9410     5.8190 ca         1 4M1       0.089400
     19 C11          3.7590    -5.3700     3.8160 ca         1 4M1       0.083400
     20 C15          1.6350    -5.5010     2.6630 ca         1 4M1       0.083400
     21 C6           1.7710     1.2290     4.4900 cc         1 4M1       0.418800
     22 C9           2.0080    -3.6670     4.3080 c          1 4M1       0.674700
     23 C25          1.8280     5.9680     8.0710 c3         1 4M1      -0.041800
     24 C8           1.7650    -1.2500     4.5010 c3         1 4M1       0.121000
     25 C7           2.1350    -0.0010     3.7000 c3         1 4M1      -0.038700
     26 N5           5.0020    -9.8890     0.8450 nd         1 4M1      -0.340000
     27 N4           3.8710    -9.9640     0.2390 nd         1 4M1      -0.340000
     28 N1           0.5410     1.8100     4.5070 na         1 4M1      -0.260300
     29 N3           3.7900    -8.2590     1.5440 na         1 4M1      -0.257800
     30 N            2.5910     1.8970     5.2490 nd         1 4M1      -0.595100
     31 N2           2.2260    -2.4430     3.7870 ns         1 4M1      -0.571900
     32 O            1.4300    -3.7820     5.3710 o          1 4M1      -0.573100
     33 Cl1          4.8090    -4.5840     4.9530 cl         1 4M1      -0.059900
     34 Cl           0.0380    -4.8830     2.3750 cl         1 4M1      -0.059900
     35 H1          -0.5410     0.0030    -0.9380 ha         1 4M1       0.135000
     36 H2           1.9230     0.0000    -0.9380 ha         1 4M1       0.135500
     37 H3          -1.7760    -0.0030     1.1970 ha         1 4M1       0.135500
     38 H4           3.1560     0.0030     1.1970 ha         1 4M1       0.130000
     39 H5          -0.5420    -0.0070     3.3330 ha         1 4M1       0.130000
     40 H6          -1.3190     3.8370     5.4060 ha         1 4M1       0.128000
     41 H7           3.3410     3.9930     7.0710 ha         1 4M1       0.143000
     42 H9           1.4230    -7.1160     1.2800 ha         1 4M1       0.159500
     43 H10          5.8240    -8.5550     2.2930 h5         1 4M1       0.078100
     44 H11          2.0830    -8.7990     0.2880 h5         1 4M1       0.078100
     45 H17          2.8740     5.8430     8.3230 hc         1 4M1       0.042700
     46 H16          1.2300     5.9010     8.9720 hc         1 4M1       0.042700
     47 H15          1.6800     6.9370     7.6100 hc         1 4M1       0.042700
     48 H19          2.2370    -1.2070     5.4750 h1         1 4M1       0.066200
     49 H18          0.6900    -1.2960     4.6230 h1         1 4M1       0.066200
     50 H20          3.2000    -0.0020     3.5020 hc         1 4M1       0.094700
     51 H21         -0.2950     1.4290     4.1090 hn         1 4M1       0.307700
     52 H23          2.7360    -2.3480     2.9310 hn         1 4M1       0.320500
     53 C24         -0.8860     5.8850     7.1060 c3         1 4M1      -0.043800
     54 H8           5.1850    -6.8800     3.3140 ha         1 4M1       0.159500
     55 H14         -0.5340     6.8700     6.8220 hc         1 4M1       0.043700
     56 H12         -1.8480     5.6980     6.6440 hc         1 4M1       0.043700
     57 H13         -0.9870     5.8350     8.1830 hc         1 4M1       0.043700
@<TRIPOS>BOND
     1     2     1 ar  
     2     2     4 ar  
     3     1     3 ar  
     4     4    13 ar  
     5     3     5 ar  
     6    13     5 ar  
     7    13    25 1   
     8    32    22 2   
     9    25    24 1   
    10    25    21 1   
    11    24    31 1   
    12    22    31 1   
    13    22    12 1   
    14    34    20 1   
    15    21    28 1   
    16    21    30 2   
    17    12    20 ar  
    18    12    19 ar  
    19    20     9 ar  
    20    28    16 1   
    21    33    19 1   
    22    19     8 ar  
    23     9    17 ar  
    24    30    18 1   
    25     8    17 ar  
    26    17    29 1   
    27    16    18 ar  
    28    16     6 ar  
    29    18     7 ar  
    30    11    29 1   
    31    11    27 2   
    32    29    10 1   
    33     6    14 ar  
    34    27    26 1   
    35     7    15 ar  
    36    10    26 2   
    37    14    15 ar  
    38    14    53 1   
    39    15    23 1   
    40     1    35 1   
    41     2    36 1   
    42     3    37 1   
    43     4    38 1   
    44     5    39 1   
    45     6    40 1   
    46     7    41 1   
    47     8    54 1   
    48     9    42 1   
    49    10    43 1   
    50    11    44 1   
    51    53    55 1   
    52    53    56 1   
    53    53    57 1   
    54    23    45 1   
    55    23    46 1   
    56    23    47 1   
    57    24    48 1   
    58    24    49 1   
    59    25    50 1   
    60    28    51 1   
    61    31    52 1   
@<TRIPOS>SUBSTRUCTURE
     1 4M1         1 TEMP              0 ****  ****    0 ROOT
