@<TRIPOS>MOLECULE
molecule
   59    60     1     0     0
SMALL
bcc


@<TRIPOS>ATOM
      1 C28          0.0000     0.0000     0.0000 ca         1 4M3      -0.093500
      2 C12          1.1010     0.7140    -9.6640 c          1 4M3       0.678100
      3 C14          2.0040     0.1110    -8.6190 c3         1 4M3      -0.022300
      4 C20          1.9510    -0.0040    -6.1860 c          1 4M3       0.654100
      5 C31          1.4050    -0.0090     2.4010 ca         1 4M3      -0.103500
      6 C15          2.4560    -1.2770    -9.0750 c3         1 4M3      -0.158400
      7 C32          2.0940     0.0000     1.2090 ca         1 4M3      -0.093500
      8 C22          1.1980    -0.0020    -4.8810 c3         1 4M3      -0.171400
      9 C27          1.3960     0.0000     0.0000 ca         1 4M3      -0.133600
     10 C01          1.1120     3.3870   -13.5200 ca         1 4M3      -0.118000
     11 C02          1.8800     4.0100   -14.4850 ca         1 4M3      -0.139000
     12 C03          1.5160     2.1770   -12.9880 ca         1 4M3      -0.026300
     13 C04          3.0550     3.4220   -14.9190 ca         1 4M3      -0.161000
     14 C05          0.6810     1.5010   -11.9320 c3         1 4M3       0.049000
     15 C06          3.4580     2.2110   -14.3870 ca         1 4M3      -0.139000
     16 C07         -0.1490     0.4140   -12.5650 c          1 4M3       0.879600
     17 C08          2.6870     1.5860   -13.4260 ca         1 4M3      -0.118000
     18 O09         -1.0310     0.7200   -13.5300 o          1 4M3      -0.794800
     19 O10         -0.0200    -0.7320   -12.2050 o          1 4M3      -0.794800
     20 N11          1.5590     0.9150   -10.9150 ns         1 4M3      -0.541900
     21 N19          1.2770    -0.0040    -7.3520 ns         1 4M3      -0.466900
     22 O21          3.1640    -0.0050    -6.1860 o          1 4M3      -0.632100
     23 C23          2.1930    -0.0030    -3.7180 c3         1 4M3       0.116000
     24 N24          1.4610    -0.0020    -2.4490 ns         1 4M3      -0.565900
     25 C25          2.1350    -0.0010    -1.2820 c          1 4M3       0.653700
     26 O26          3.3510    -0.0010    -1.2830 o          1 4M3      -0.595100
     27 C29         -0.6880     0.0000     1.1940 ca         1 4M3      -0.103500
     28 C30          0.0100    -0.0040     2.4020 ca         1 4M3      -0.165900
     29 C33         -0.7300    -0.0150     3.6850 ce         1 4M3       0.481800
     30 N34         -0.0780    -0.0300     4.8120 n2         1 4M3      -0.757100
     31 N35         -2.1080    -0.0090     3.6860 nz         1 4M3      -0.782600
     32 H1          -0.5420     0.0020    -0.9380 ha         1 4M3       0.179500
     33 H2           2.8710     0.7460    -8.4810 h1         1 4M3       0.034700
     34 H3           1.9470    -0.0110     3.3390 ha         1 4M3       0.129500
     35 H5           3.1480    -1.6880    -8.3490 hc         1 4M3       0.049200
     36 H4           2.9470    -1.1990   -10.0370 hc         1 4M3       0.049200
     37 H6           3.0840     0.0880     0.7790 ha         1 4M3       0.179500
     38 H7           0.5760     0.8830    -4.8230 hc         1 4M3       0.066200
     39 H8           0.5740    -0.8860    -4.8230 hc         1 4M3       0.066200
     40 H9           0.1920     3.8470   -13.1800 ha         1 4M3       0.136000
     41 H10          1.5630     4.9580   -14.9020 ha         1 4M3       0.108000
     42 H11          3.6590     3.9100   -15.6740 ha         1 4M3       0.103000
     43 H12          0.0270     2.2300   -11.4680 h1         1 4M3       0.074700
     44 H13          4.3770     1.7490   -14.7280 ha         1 4M3       0.108000
     45 H14          3.0030     0.6380   -13.0100 ha         1 4M3       0.136000
     46 H16          2.5090     0.6980   -11.1410 hn         1 4M3       0.302500
     47 H18          0.6820     0.7360    -7.6700 hn         1 4M3       0.333500
     48 H19          2.8170     0.8810    -3.7750 h1         1 4M3       0.075200
     49 H20          2.8150    -0.8880    -3.7750 h1         1 4M3       0.075200
     50 H21          0.4600    -0.0020    -2.4480 hn         1 4M3       0.308500
     51 H22         -1.7710     0.0020     1.1950 ha         1 4M3       0.129500
     52 H23         -0.5770    -0.0380     5.6800 hn         1 4M3       0.405400
     53 H25         -2.4460    -0.8230     3.2110 hn         1 4M3       0.447800
     54 H352        -2.4420    -0.0120     4.6300 hn         1 4M3       0.447800
     55 C16          1.2570    -2.1820    -9.1950 c          1 4M3       0.893600
     56 H353        -2.4390     0.8110     3.2180 hn         1 4M3       0.447800
     57 O13         -0.0380     1.0180    -9.3790 o          1 4M3      -0.609100
     58 O17          1.4220    -3.4730    -9.5230 o          1 4M3      -0.755300
     59 O18          0.1490    -1.7450    -8.9960 o          1 4M3      -0.755300
@<TRIPOS>BOND
     1    18    16 1   
     2    11    10 ar  
     3    11    13 ar  
     4    10    12 ar  
     5    16    19 1   
     6    16    14 1   
     7    13    15 ar  
     8    12    14 1   
     9    12    17 ar  
    10    14    20 1   
    11    15    17 ar  
    12    20     2 1   
    13    57     2 2   
    14     2     3 1   
    15    23    24 1   
    16    23     8 1   
    17    24    25 1   
    18    22     4 2   
    19     3    21 1   
    20     3     6 1   
    21    58    55 1   
    22     4    21 1   
    23     4     8 1   
    24    30    29 2   
    25     7     5 ar  
    26     7     9 ar  
    27    55     6 1   
    28    55    59 1   
    29     5    28 ar  
    30    25     9 1   
    31    25    26 2   
    32     9     1 ar  
    33    28    29 1   
    34    28    27 ar  
    35    29    31 1   
    36     1    27 ar  
    37     1    32 1   
    38     3    33 1   
    39     5    34 1   
    40     6    35 1   
    41     6    36 1   
    42     7    37 1   
    43     8    38 1   
    44     8    39 1   
    45    10    40 1   
    46    11    41 1   
    47    13    42 1   
    48    14    43 1   
    49    15    44 1   
    50    17    45 1   
    51    20    46 1   
    52    21    47 1   
    53    23    48 1   
    54    23    49 1   
    55    24    50 1   
    56    27    51 1   
    57    30    52 1   
    58    31    53 1   
    59    31    54 1   
    60    56    31 1   
@<TRIPOS>SUBSTRUCTURE
     1 4M3         1 TEMP              0 ****  ****    0 ROOT
