@<TRIPOS>MOLECULE
molecule
   21    21     1     0     0
SMALL
bcc


@<TRIPOS>ATOM
      1 C3           0.0000     0.0000     0.0000 ca         1 4M4       0.078100
      2 C2           1.3920     0.0000     0.0000 ca         1 4M4       0.126100
      3 C1           3.5000     0.0010    -1.1030 c3         1 4M4       0.125700
      4 C5          -0.0130     0.0060     2.3980 ca         1 4M4      -0.146000
      5 C4          -0.6960     0.0060     1.2000 ca         1 4M4      -0.129000
      6 C6           1.3830     0.0000     2.4050 ca         1 4M4      -0.029800
      7 O1           2.0720     0.0010    -1.1770 os         1 4M4      -0.313900
      8 C7           2.0840     0.0000     1.1980 ca         1 4M4      -0.201000
      9 O8          -0.6790     0.0000    -1.1780 oh         1 4M4      -0.504100
     10 C9           2.1170    -0.0000     3.6870 ce         1 4M4      -0.118200
     11 C10          1.4510     0.0050     4.8330 c2         1 4M4      -0.208000
     12 H1           3.8330     0.8850    -0.5720 h1         1 4M4       0.041367
     13 H2           3.9140     0.0030    -2.1040 h1         1 4M4       0.041367
     14 H3           3.8340    -0.8840    -0.5750 h1         1 4M4       0.041367
     15 H4          -0.5590     0.0080     3.3330 ha         1 4M4       0.137000
     16 H5          -1.7800     0.0080     1.1970 ha         1 4M4       0.142000
     17 H6           3.1670    -0.0020     1.1990 ha         1 4M4       0.141000
     18 H7          -1.0520    -0.8530    -1.3250 ho         1 4M4       0.415000
     19 H8           3.2000    -0.0050     3.6910 ha         1 4M4       0.128000
     20 H9           1.9890     0.0040     5.7730 ha         1 4M4       0.117000
     21 H10          0.3670     0.0090     4.8290 ha         1 4M4       0.117000
@<TRIPOS>BOND
     1     4     5 ar  
     2     4     6 ar  
     3    10     6 1   
     4    10    11 2   
     5     5     1 ar  
     6     6     8 ar  
     7     1     9 1   
     8     1     2 ar  
     9     8     2 ar  
    10     2     7 1   
    11     7     3 1   
    12     3    12 1   
    13     3    13 1   
    14     3    14 1   
    15     4    15 1   
    16     5    16 1   
    17     8    17 1   
    18     9    18 1   
    19    10    19 1   
    20    11    20 1   
    21    11    21 1   
@<TRIPOS>SUBSTRUCTURE
     1 4M4         1 TEMP              0 ****  ****    0 ROOT
