@<TRIPOS>MOLECULE
4M4
   21    21     1     0     0
SMALL
bcc


@<TRIPOS>ATOM
      1 C3         -0.0350   -0.0050    0.0190 ca        1 4M4      0.115100
      2 C2          1.3790   -0.0640    0.0660 ca        1 4M4      0.041100
      3 C1          3.4120   -0.2770   -1.1570 c3        1 4M4      0.121700
      4 C5         -0.0860    0.1670    2.4260 ca        1 4M4     -0.113000
      5 C4         -0.7610    0.1130    1.2100 ca        1 4M4     -0.139000
      6 C6          1.3120    0.1050    2.4810 ca        1 4M4     -0.062800
      7 O1          1.9930   -0.1740   -1.1720 os        1 4M4     -0.349900
      8 C7          2.0450   -0.0060    1.2880 ca        1 4M4     -0.152000
      9 O8         -0.7470   -0.0550   -1.1540 oh        1 4M4     -0.495100
     10 C9          2.0340    0.1620    3.7430 ce        1 4M4     -0.110200
     11 C10         1.5120   -0.1010    4.9430 c2        1 4M4     -0.210000
     12 H1          3.6760   -0.3760   -2.2400 h1        1 4M4      0.045367
     13 H2          3.7350   -1.1810   -0.5870 h1        1 4M4      0.045367
     14 H3          3.8680    0.6450   -0.7220 h1        1 4M4      0.045367
     15 H4         -0.6670    0.2650    3.3560 ha        1 4M4      0.138000
     16 H5         -1.8580    0.1620    1.1660 ha        1 4M4      0.153000
     17 H6          3.1420   -0.0500    1.3290 ha        1 4M4      0.139000
     18 H7         -0.1170   -0.1400   -1.8860 ho        1 4M4      0.437000
     19 H8          3.0990    0.4420    3.6530 ha        1 4M4      0.121000
     20 H9          0.4660   -0.3970    5.0940 ha        1 4M4      0.114000
     21 H10         2.1130   -0.0400    5.8590 ha        1 4M4      0.114000
@<TRIPOS>BOND
     1    1    2 ar  
     2    1    5 ar  
     3    1    9 1   
     4    2    7 1   
     5    2    8 ar  
     6    3    7 1   
     7    3   12 1   
     8    3   13 1   
     9    3   14 1   
    10    4    5 ar  
    11    4    6 ar  
    12    4   15 1   
    13    5   16 1   
    14    6    8 ar  
    15    6   10 1   
    16    8   17 1   
    17    9   18 1   
    18   10   11 2   
    19   10   19 1   
    20   11   20 1   
    21   11   21 1   
@<TRIPOS>SUBSTRUCTURE
     1 4M4         1 TEMP              0 ****  ****    0 ROOT
