@<TRIPOS>MOLECULE
molecule
   56    55     1     0     0
SMALL
bcc


@<TRIPOS>ATOM
      1 O23          0.0000     0.0000     0.0000 o          1 4M5      -0.500100
      2 C17          1.2070     0.0000     0.0000 c          1 4M5       0.552100
      3 C18          1.9610     0.0000     1.3040 c3         1 4M5      -0.188200
      4 C19          0.9820     0.0010     2.4500 c2         1 4M5      -0.108200
      5 C20          1.0850    -0.8960     3.4000 c2         1 4M5      -0.272200
      6 C21          2.2710    -1.8250     3.4350 c3         1 4M5      -0.054200
      7 C22          2.9380    -1.7500     4.8100 c3         1 4M5      -0.118100
      8 C16          1.9600    -0.0080    -1.3060 c3         1 4M5      -0.186400
      9 C15          0.9650    -0.0130    -2.4680 c3         1 4M5      -0.047200
     10 C14          1.7180    -0.0210    -3.7730 c2         1 4M5      -0.209200
     11 C13          1.4430    -0.9210    -4.6840 c2         1 4M5      -0.257200
     12 C12          0.2700    -1.8470    -4.4950 c3         1 4M5       0.132000
     13 C11         -0.6230    -1.7800    -5.7080 c2         1 4M5      -0.281200
     14 C10         -0.9620    -2.8790    -6.3340 c2         1 4M5      -0.080200
     15 C9          -0.6040    -4.2210    -5.7480 c3         1 4M5      -0.047000
     16 C8          -1.8430    -5.0740    -5.6540 c2         1 4M5      -0.341200
     17 C7          -1.8560    -6.2710    -6.1870 c2         1 4M5      -0.292200
     18 C6          -0.5880    -6.8580    -6.7520 c3         1 4M5       0.042000
     19 C5          -0.3610    -8.2250    -6.1590 c2         1 4M5      -0.318200
     20 C4          -0.2320    -9.2650    -6.9450 c2         1 4M5      -0.229200
     21 C3          -0.4880    -9.1300    -8.4240 c3         1 4M5      -0.038200
     22 C2           0.7830    -9.4890    -9.1960 c3         1 4M5      -0.211400
     23 C1           0.5270    -9.3530   -10.6760 c          1 4M5       0.893600
     24 O25          1.5070    -9.6190   -11.5530 o          1 4M5      -0.834800
     25 O24         -0.5600    -9.0050   -11.0710 o          1 4M5      -0.834800
     26 H1           2.5840    -0.8850     1.3620 hc         1 4M5       0.068200
     27 H2           2.5840     0.8840     1.3610 hc         1 4M5       0.068200
     28 H3           1.9470     0.4860     2.5370 ha         1 4M5       0.124000
     29 H4           2.1170    -0.6460     3.6150 ha         1 4M5       0.183000
     30 H5           1.9410    -2.8390     3.2480 hc         1 4M5       0.059700
     31 H6           2.9820    -1.5310     2.6730 hc         1 4M5       0.059700
     32 H7           3.5530    -2.6290     4.9610 hc         1 4M5       0.045700
     33 H8           2.1760    -1.7060     5.5790 hc         1 4M5       0.045700
     34 H9           3.5560    -0.8630     4.8640 hc         1 4M5       0.045700
     35 H10          2.5840     0.8760    -1.3680 hc         1 4M5       0.073200
     36 H11          2.5820    -0.8930    -1.3580 hc         1 4M5       0.073200
     37 H12          0.3420    -0.8970    -2.4050 hc         1 4M5       0.056700
     38 H13          0.3440     0.8720    -2.4150 hc         1 4M5       0.056700
     39 H14          0.7530     0.4630    -3.6850 ha         1 4M5       0.131000
     40 H15          0.3890    -0.6700    -4.7130 ha         1 4M5       0.175000
     41 H16         -0.2900    -1.5470    -3.6180 hc         1 4M5       0.070700
     42 H17          0.6270    -2.8610    -4.3660 hc         1 4M5       0.070700
     43 H18         -1.0320    -1.9820    -4.7250 ha         1 4M5       0.033000
     44 H19          0.0150    -3.3180    -6.5010 ha         1 4M5       0.124000
     45 H20         -0.1850    -4.0820    -4.7590 hc         1 4M5       0.041200
     46 H21          0.1240    -4.7100    -6.3840 hc         1 4M5       0.041200
     47 H22         -1.0290    -5.1860    -4.9480 ha         1 4M5       0.257000
     48 H23         -1.5290    -6.0370    -7.1930 ha         1 4M5       0.266000
     49 H24         -0.6780    -6.9420    -7.8280 hc         1 4M5       0.045200
     50 H25          0.2480    -6.2150    -6.5080 hc         1 4M5       0.045200
     51 H26         -1.3570    -7.8960    -6.4290 ha         1 4M5       0.103000
     52 H27          0.5450    -8.9120    -7.6120 ha         1 4M5       0.224000
     53 H28         -0.7720    -8.1090    -8.6490 hc         1 4M5       0.073700
     54 H29         -1.2880    -9.8000    -8.7140 hc         1 4M5       0.073700
     55 H30          1.0660   -10.5100    -8.9710 hc         1 4M5       0.047700
     56 H31          1.5840    -8.8200    -8.9060 hc         1 4M5       0.047700
@<TRIPOS>BOND
     1     8     9 1   
     2     8     2 1   
     3     9    10 1   
     4     1     2 2   
     5     2     3 1   
     6    10    11 2   
     7     4     3 1   
     8     4     5 2   
     9    25    23 1   
    10    24    23 1   
    11    23    22 1   
    12    11    12 1   
    13     5     6 1   
    14    12    13 1   
    15    21    22 1   
    16    21    20 1   
    17    15    16 1   
    18    15    14 1   
    19    20    19 2   
    20    13    14 2   
    21     6     7 1   
    22    18    19 1   
    23    18    17 1   
    24    16    17 2   
    25     3    26 1   
    26     3    27 1   
    27     4    28 1   
    28     5    29 1   
    29     6    30 1   
    30     6    31 1   
    31     7    32 1   
    32     7    33 1   
    33     7    34 1   
    34     8    35 1   
    35     8    36 1   
    36     9    37 1   
    37     9    38 1   
    38    10    39 1   
    39    11    40 1   
    40    12    41 1   
    41    12    42 1   
    42    13    43 1   
    43    14    44 1   
    44    15    45 1   
    45    15    46 1   
    46    16    47 1   
    47    17    48 1   
    48    18    49 1   
    49    18    50 1   
    50    19    51 1   
    51    20    52 1   
    52    21    53 1   
    53    21    54 1   
    54    22    55 1   
    55    22    56 1   
@<TRIPOS>SUBSTRUCTURE
     1 4M5         1 TEMP              0 ****  ****    0 ROOT
