@<TRIPOS>MOLECULE
molecule
   51    55     1     0     0
SMALL
bcc


@<TRIPOS>ATOM
      1 OAA          0.0000     0.0000     0.0000 o          1 4M6      -0.828300
      2 CAT          1.3490     0.0000     0.0000 c          1 4M6       0.897800
      3 OAB          1.9560     0.0000     1.0530 o          1 4M6      -0.828300
      4 CAX          2.0820     0.0010    -1.2720 cc         1 4M6      -0.039300
      5 NBC          1.5090     0.0020    -2.5180 na         1 4M6      -0.024400
      6 CBB          2.5260     0.0070    -3.4340 ca         1 4M6      -0.085200
      7 CAR          0.1130    -0.0020    -2.9700 c3         1 4M6       0.066300
      8 CAN          0.0520    -0.6550    -4.3570 c3         1 4M6      -0.104400
      9 CAP          0.9930     0.0220    -5.3600 c3         1 4M6      -0.023100
     10 CAU          2.3930     0.0120    -4.8220 ca         1 4M6      -0.091300
     11 CAG          3.5590     0.0110    -5.5410 ca         1 4M6      -0.140000
     12 CAE          4.7940     0.0060    -4.8960 ca         1 4M6      -0.172000
     13 CAL          4.9390     0.0030    -3.5290 ca         1 4M6      -0.093000
     14 CBA          3.7630     0.0030    -2.7650 ca         1 4M6      -0.079800
     15 CAW          3.4520     0.0080    -1.3990 cd         1 4M6      -0.172400
     16 CAQ          4.4450     0.0160    -0.2660 c3         1 4M6       0.009800
     17 CAM          4.7760     1.4610     0.1120 c3         1 4M6      -0.071400
     18 CAO          5.7850     1.4690     1.2630 c3         1 4M6       0.130400
     19 OAS          6.0950     2.8180     1.6150 os         1 4M6      -0.320900
     20 CAV          6.9820     3.0030     2.6270 ca         1 4M6       0.181100
     21 CAZ          7.3360     4.3070     3.0300 ca         1 4M6      -0.044000
     22 CAK          6.7870     5.4380     2.4050 ca         1 4M6      -0.071000
     23 CAD          7.1530     6.6820     2.8220 ca         1 4M6      -0.177000
     24 CAC          8.0650     6.8510     3.8630 ca         1 4M6      -0.130000
     25 CAI          8.6170     5.7770     4.4910 ca         1 4M6      -0.138000
     26 CAY          8.2630     4.4780     4.0890 ca         1 4M6       0.011000
     27 CAJ          8.8100     3.3450     4.7150 ca         1 4M6      -0.180000
     28 CAF          8.4460     2.1010     4.3000 ca         1 4M6      -0.076000
     29 CAH          7.5320     1.9280     3.2640 ca         1 4M6      -0.249000
     30 H2          -0.2520     1.0160    -3.0320 h1         1 4M6       0.076200
     31 H3          -0.4920    -0.5700    -2.2740 h1         1 4M6       0.076200
     32 H4           0.3310    -1.6980    -4.2640 hc         1 4M6       0.044200
     33 H5          -0.9630    -0.5900    -4.7300 hc         1 4M6       0.044200
     34 H6           0.9650    -0.5180    -6.2990 hc         1 4M6       0.039200
     35 H7           0.6740     1.0450    -5.5170 hc         1 4M6       0.039200
     36 H8           3.5200     0.0130    -6.6240 ha         1 4M6       0.107000
     37 H9           5.6900     0.0040    -5.5050 ha         1 4M6       0.101000
     38 H10          5.9170    -0.0020    -3.0630 ha         1 4M6       0.121000
     39 H11          4.0190    -0.4930     0.5910 hc         1 4M6       0.051700
     40 H12          5.3500    -0.4930    -0.5750 hc         1 4M6       0.051700
     41 H13          5.2020     1.9700    -0.7440 hc         1 4M6       0.060200
     42 H14          3.8710     1.9700     0.4220 hc         1 4M6       0.060200
     43 H15          6.6900     0.9590     0.9540 h1         1 4M6       0.035700
     44 H16          5.3590     0.9610     2.1200 h1         1 4M6       0.035700
     45 H17          6.0810     5.5940     1.5990 ha         1 4M6       0.151000
     46 H18          6.7600     7.5860     2.3720 ha         1 4M6       0.122000
     47 H19          8.3210     7.8620     4.1550 ha         1 4M6       0.115000
     48 H20          9.3060     6.0640     5.2760 ha         1 4M6       0.125000
     49 H21          9.5230     3.4620     5.5220 ha         1 4M6       0.124000
     50 H22          8.8680     1.2310     4.7900 ha         1 4M6       0.121000
     51 H23          7.2590     0.9260     2.9540 ha         1 4M6       0.143000
@<TRIPOS>BOND
     1    25    24 ar  
     2    25    26 ar  
     3    27    26 ar  
     4    27    28 ar  
     5    24    23 ar  
     6    26    21 ar  
     7    28    29 ar  
     8    23    22 ar  
     9    21    22 ar  
    10    21    20 ar  
    11    29    20 ar  
    12    20    19 1   
    13    19    18 1   
    14    18    17 1   
    15    17    16 1   
    16    16    15 1   
    17     3     2 1   
    18    15    14 1   
    19    15     4 2   
    20    13    14 ar  
    21    13    12 ar  
    22    14     6 ar  
    23     2     4 1   
    24     2     1 1   
    25    12    11 ar  
    26     4     5 1   
    27     6     5 1   
    28     6    10 ar  
    29     5     7 1   
    30    11    10 ar  
    31    10     9 1   
    32     7     8 1   
    33     8     9 1   
    34     7    30 1   
    35     7    31 1   
    36     8    32 1   
    37     8    33 1   
    38     9    34 1   
    39     9    35 1   
    40    11    36 1   
    41    12    37 1   
    42    13    38 1   
    43    16    39 1   
    44    16    40 1   
    45    17    41 1   
    46    17    42 1   
    47    18    43 1   
    48    18    44 1   
    49    22    45 1   
    50    23    46 1   
    51    24    47 1   
    52    25    48 1   
    53    27    49 1   
    54    28    50 1   
    55    29    51 1   
@<TRIPOS>SUBSTRUCTURE
     1 4M6         1 TEMP              0 ****  ****    0 ROOT
