@<TRIPOS>MOLECULE
4M6
   51    55     1     0     0
SMALL
bcc


@<TRIPOS>ATOM
      1 OAA         0.1710   -0.6380   -0.0450 o         1 4M6     -0.816800
      2 CAT         1.3770   -0.2750    0.0430 c         1 4M6      0.929800
      3 OAB         1.9910   -0.0770    1.1250 o         1 4M6     -0.816800
      4 CAX         2.1590   -0.0690   -1.2500 cc        1 4M6     -0.050300
      5 NBC         1.5490   -0.0160   -2.5090 na        1 4M6     -0.045400
      6 CBB         2.5400    0.1180   -3.4780 ca        1 4M6     -0.077200
      7 CAR         0.1780   -0.1420   -2.9140 c3        1 4M6      0.042300
      8 CAN         0.0480   -0.6440   -4.3620 c3        1 4M6     -0.093400
      9 CAP         0.9580    0.0640   -5.3600 c3        1 4M6     -0.020100
     10 CAU         2.3580    0.1560   -4.8700 ca        1 4M6     -0.095300
     11 CAG         3.5030    0.2810   -5.6440 ca        1 4M6     -0.140000
     12 CAE         4.7720    0.3630   -5.0370 ca        1 4M6     -0.176000
     13 CAL         4.9470    0.3150   -3.6590 ca        1 4M6     -0.098000
     14 CBA         3.8270    0.1830   -2.8330 ca        1 4M6     -0.073800
     15 CAW         3.5540    0.0670   -1.4170 cd        1 4M6     -0.173400
     16 CAQ         4.5510    0.0670   -0.3380 c3        1 4M6      0.014800
     17 CAM         4.6990    1.4420    0.2910 c3        1 4M6     -0.080400
     18 CAO         5.6340    1.3610    1.4840 c3        1 4M6      0.129400
     19 OAS         6.0880    2.7070    1.7280 os        1 4M6     -0.329900
     20 CAV         6.9360    2.8770    2.7920 ca        1 4M6      0.170100
     21 CAZ         7.3690    4.2320    2.9980 ca        1 4M6     -0.063000
     22 CAK         6.9340    5.2960    2.1650 ca        1 4M6     -0.078000
     23 CAD         7.3700    6.5800    2.3900 ca        1 4M6     -0.158000
     24 CAC         8.2570    6.8540    3.4570 ca        1 4M6     -0.120000
     25 CAI         8.6910    5.8410    4.2780 ca        1 4M6     -0.140000
     26 CAY         8.2570    4.5030    4.0690 ca        1 4M6     -0.006000
     27 CAJ         8.6910    3.4420    4.9100 ca        1 4M6     -0.180000
     28 CAF         8.2540    2.1600    4.6880 ca        1 4M6     -0.080000
     29 CAH         7.3730    1.8630    3.6260 ca        1 4M6     -0.236000
     30 H2         -0.3460   -0.8410   -2.1970 h1        1 4M6      0.075700
     31 H3         -0.3150    0.8700   -2.8310 h1        1 4M6      0.075700
     32 H4          0.2720   -1.7420   -4.3860 hc        1 4M6      0.040700
     33 H5         -1.0190   -0.5050   -4.6740 hc        1 4M6      0.040700
     34 H6          0.9230   -0.4810   -6.3400 hc        1 4M6      0.035700
     35 H7          0.5700    1.1040   -5.5420 hc        1 4M6      0.035700
     36 H8          3.4260    0.3140   -6.7390 ha        1 4M6      0.108000
     37 H9          5.6540    0.4670   -5.6860 ha        1 4M6      0.105000
     38 H10         5.9510    0.3750   -3.2190 ha        1 4M6      0.118000
     39 H11         5.5440   -0.2750   -0.7380 hc        1 4M6      0.044200
     40 H12         4.2180   -0.6530    0.4610 hc        1 4M6      0.044200
     41 H13         3.6870    1.7910    0.6320 hc        1 4M6      0.066700
     42 H14         5.0930    2.1780   -0.4550 hc        1 4M6      0.066700
     43 H15         5.0960    0.9790    2.3900 h1        1 4M6      0.041700
     44 H16         6.5260    0.7160    1.2670 h1        1 4M6      0.041700
     45 H17         6.2400    5.0630    1.3410 ha        1 4M6      0.157000
     46 H18         7.0330    7.4060    1.7480 ha        1 4M6      0.127000
     47 H19         8.5930    7.8880    3.6200 ha        1 4M6      0.120000
     48 H20         9.3790    6.0450    5.1100 ha        1 4M6      0.123000
     49 H21         9.3780    3.6710    5.7360 ha        1 4M6      0.123000
     50 H22         8.5860    1.3370    5.3390 ha        1 4M6      0.123000
     51 H23         7.0430    0.8250    3.4840 ha        1 4M6      0.145000
@<TRIPOS>BOND
     1    1    2 1   
     2    2    3 1   
     3    2    4 1   
     4    4    5 1   
     5    4   15 2   
     6    5    6 1   
     7    5    7 1   
     8    6   10 ar  
     9    6   14 ar  
    10    7    8 1   
    11    7   30 1   
    12    7   31 1   
    13    8    9 1   
    14    8   32 1   
    15    8   33 1   
    16    9   10 1   
    17    9   34 1   
    18    9   35 1   
    19   10   11 ar  
    20   11   12 ar  
    21   11   36 1   
    22   12   13 ar  
    23   12   37 1   
    24   13   14 ar  
    25   13   38 1   
    26   14   15 1   
    27   15   16 1   
    28   16   17 1   
    29   16   39 1   
    30   16   40 1   
    31   17   18 1   
    32   17   41 1   
    33   17   42 1   
    34   18   19 1   
    35   18   43 1   
    36   18   44 1   
    37   19   20 1   
    38   20   21 ar  
    39   20   29 ar  
    40   21   22 ar  
    41   21   26 ar  
    42   22   23 ar  
    43   22   45 1   
    44   23   24 ar  
    45   23   46 1   
    46   24   25 ar  
    47   24   47 1   
    48   25   26 ar  
    49   25   48 1   
    50   26   27 ar  
    51   27   28 ar  
    52   27   49 1   
    53   28   29 ar  
    54   28   50 1   
    55   29   51 1   
@<TRIPOS>SUBSTRUCTURE
     1 4M6         1 TEMP              0 ****  ****    0 ROOT
