@<TRIPOS>MOLECULE
molecule
   53    57     1     0     0
SMALL
bcc


@<TRIPOS>ATOM
      1 OAA          0.0000     0.0000     0.0000 o          1 4M7      -0.823800
      2 CAU          1.3480     0.0000     0.0000 c          1 4M7       0.900800
      3 OAC          1.9560     0.0000     1.0530 o          1 4M7      -0.823800
      4 CAY          2.0830    -0.0000    -1.2720 cc         1 4M7      -0.040300
      5 NBD          1.5070     0.0060    -2.5320 na         1 4M7      -0.022400
      6 CBC          2.5120     0.1810    -3.4330 ca         1 4M7      -0.011200
      7 CAR          0.0860    -0.2390    -2.8360 c3         1 4M7       0.018300
      8 CAO          0.0010    -1.2350    -3.9960 c3         1 4M7      -0.086400
      9 CAS         -0.0410    -0.5660    -5.3680 c3         1 4M7      -0.093100
     10 SBE          0.8900     0.9800    -5.4290 sx         1 4M7       0.322400
     11 OAB          0.3930     1.8720    -4.4410 o          1 4M7      -0.509200
     12 CAX          2.4670     0.5170    -4.7900 ca         1 4M7      -0.116500
     13 CAI          3.6150     0.5210    -5.5270 ca         1 4M7      -0.059000
     14 CAG          4.8360     0.2530    -4.9050 ca         1 4M7      -0.201000
     15 CAM          4.9100     0.0230    -3.5590 ca         1 4M7      -0.052000
     16 CBB          3.7470     0.0450    -2.7820 ca         1 4M7      -0.101800
     17 CAW          3.4420     0.0010    -1.4020 cd         1 4M7      -0.163400
     18 CAQ          4.4410    -0.0420    -0.2740 c3         1 4M7       0.005800
     19 CAN          4.7740    -1.4990     0.0570 c3         1 4M7      -0.071400
     20 CAP          5.7880    -1.5410     1.2020 c3         1 4M7       0.131400
     21 OAT          6.1000    -2.9010     1.5110 os         1 4M7      -0.325900
     22 CAV          6.9920    -3.1170     2.5120 ca         1 4M7       0.179100
     23 CBA          7.3540    -4.4320     2.8700 ca         1 4M7      -0.060000
     24 CAL          6.8080    -5.5430     2.2080 ca         1 4M7      -0.077000
     25 CAE          7.1800    -6.7990     2.5800 ca         1 4M7      -0.158000
     26 CAD          8.0980    -6.9990     3.6110 ca         1 4M7      -0.117000
     27 CAJ          8.6470    -5.9450     4.2740 ca         1 4M7      -0.137000
     28 CAZ          8.2860    -4.6350     3.9170 ca         1 4M7       0.000000
     29 CAK          8.8330    -3.5220     4.5790 ca         1 4M7      -0.180000
     30 CAF          8.4620    -2.2660     4.2080 ca         1 4M7      -0.076000
     31 CAH          7.5500    -2.0610     3.1770 ca         1 4M7      -0.247000
     32 H2          -0.3900     0.6910    -3.1200 h1         1 4M7       0.115700
     33 H3          -0.4050    -0.6540    -1.9640 h1         1 4M7       0.115700
     34 H4          -0.8950    -1.8310    -3.8750 hc         1 4M7       0.048700
     35 H5           0.8660    -1.8870    -3.9560 hc         1 4M7       0.048700
     36 H6          -1.0740    -0.3600    -5.6220 h1         1 4M7       0.066200
     37 H7           0.3730    -1.2500    -6.1000 h1         1 4M7       0.066200
     38 H9           3.5770     0.7000    -6.5940 ha         1 4M7       0.106000
     39 H10          5.7410     0.2270    -5.4990 ha         1 4M7       0.108000
     40 H11          5.8680    -0.1830    -3.0960 ha         1 4M7       0.118000
     41 H12          4.0190     0.4400     0.6000 hc         1 4M7       0.054700
     42 H13          5.3440     0.4770    -0.5710 hc         1 4M7       0.054700
     43 H14          5.1960    -1.9800    -0.8170 hc         1 4M7       0.057700
     44 H15          3.8710    -2.0170     0.3550 hc         1 4M7       0.057700
     45 H16          5.3670    -1.0590     2.0760 h1         1 4M7       0.037200
     46 H17          6.6910    -1.0220     0.9040 h1         1 4M7       0.037200
     47 H18          6.0940    -5.4030     1.4060 ha         1 4M7       0.152000
     48 H19          6.7580    -7.6550     2.0680 ha         1 4M7       0.124000
     49 H20          8.3780    -8.0080     3.8870 ha         1 4M7       0.117000
     50 H21          9.3590    -6.1150     5.0730 ha         1 4M7       0.125000
     51 H22          9.5440    -3.6630     5.3840 ha         1 4M7       0.123000
     52 H23          8.8890    -1.4110     4.7190 ha         1 4M7       0.121000
     53 H24          7.2720    -1.0500     2.9030 ha         1 4M7       0.143000
@<TRIPOS>BOND
     1     3     2 1   
     2     2     1 1   
     3     2     4 1   
     4    18    17 1   
     5    18    19 1   
     6     4    17 2   
     7     4     5 1   
     8    17    16 1   
     9    19    20 1   
    10     8     7 1   
    11     8     9 1   
    12     5     7 1   
    13     5     6 1   
    14    25    24 ar  
    15    25    26 ar  
    16    16     6 ar  
    17    16    15 ar  
    18    24    23 ar  
    19     6    12 ar  
    20    15    14 ar  
    21     9    10 1   
    22    21    20 1   
    23    21    22 1   
    24    26    27 ar  
    25    12    13 ar  
    26    12    10 1   
    27    14    13 ar  
    28    23    22 ar  
    29    23    28 ar  
    30    10    11 2   
    31    22    31 ar  
    32    27    28 ar  
    33    28    29 ar  
    34    31    30 ar  
    35    29    30 ar  
    36     7    32 1   
    37     7    33 1   
    38     8    34 1   
    39     8    35 1   
    40     9    36 1   
    41     9    37 1   
    42    13    38 1   
    43    14    39 1   
    44    15    40 1   
    45    18    41 1   
    46    18    42 1   
    47    19    43 1   
    48    19    44 1   
    49    20    45 1   
    50    20    46 1   
    51    24    47 1   
    52    25    48 1   
    53    26    49 1   
    54    27    50 1   
    55    29    51 1   
    56    30    52 1   
    57    31    53 1   
@<TRIPOS>SUBSTRUCTURE
     1 4M7         1 TEMP              0 ****  ****    0 ROOT
