@<TRIPOS>MOLECULE
4M7
   53    57     1     0     0
SMALL
bcc


@<TRIPOS>ATOM
      1 OAA        -0.0290    0.2110    0.0230 o         1 4M7     -0.807300
      2 CAU         1.1700    0.6020    0.0210 c         1 4M7      0.930800
      3 OAC         1.7380    1.1890    0.9790 o         1 4M7     -0.807300
      4 CAY         2.0150    0.3260   -1.2230 cc        1 4M7     -0.042300
      5 NBD         1.5050    0.3470   -2.5380 na        1 4M7     -0.049400
      6 CBC         2.5250   -0.0000   -3.4230 ca        1 4M7      0.026800
      7 CAR         0.1240    0.4560   -2.9210 c3        1 4M7      0.001300
      8 CAO        -0.3910   -0.7470   -3.7170 c3        1 4M7     -0.062400
      9 CAS        -0.2050   -0.6090   -5.2060 c3        1 4M7     -0.080100
     10 SBE         1.2420    0.1190   -5.9050 sx        1 4M7      0.291400
     11 OAB         0.9330    1.5830   -5.9360 o         1 4M7     -0.520200
     12 CAX         2.5170   -0.1460   -4.8160 ca        1 4M7     -0.145500
     13 CAI         3.7260   -0.5200   -5.4170 ca        1 4M7     -0.072000
     14 CAG         4.8940   -0.7250   -4.6860 ca        1 4M7     -0.192000
     15 CAM         4.9100   -0.5680   -3.2980 ca        1 4M7     -0.065000
     16 CBB         3.7400   -0.2150   -2.6460 ca        1 4M7     -0.085800
     17 CAW         3.3790    0.0080   -1.2630 cd        1 4M7     -0.173400
     18 CAQ         4.2930   -0.0460   -0.1140 c3        1 4M7     -0.010200
     19 CAN         4.7550   -1.4620    0.1850 c3        1 4M7     -0.079400
     20 CAP         5.5660   -1.4700    1.4680 c3        1 4M7      0.126400
     21 OAT         6.1770   -2.7720    1.5440 os        1 4M7     -0.331900
     22 CAV         6.9610   -3.0080    2.6470 ca        1 4M7      0.165100
     23 CBA         7.5610   -4.3140    2.6810 ca        1 4M7     -0.061000
     24 CAL         7.3430   -5.2700    1.6540 ca        1 4M7     -0.081000
     25 CAE         7.9340   -6.5090    1.7200 ca        1 4M7     -0.156000
     26 CAD         8.7660   -6.8440    2.8140 ca        1 4M7     -0.120000
     27 CAJ         8.9900   -5.9360    3.8200 ca        1 4M7     -0.138000
     28 CAZ         8.3920   -4.6460    3.7800 ca        1 4M7     -0.008000
     29 CAK         8.6100   -3.6930    4.8120 ca        1 4M7     -0.175000
     30 CAF         8.0190   -2.4560    4.7490 ca        1 4M7     -0.081000
     31 CAH         7.1870   -2.0990    3.6650 ca        1 4M7     -0.232000
     32 H2         -0.4890    0.5600   -1.9740 h1        1 4M7      0.101200
     33 H3          0.0010    1.3920   -3.5420 h1        1 4M7      0.101200
     34 H4          0.0980   -1.6910   -3.3580 hc        1 4M7      0.051200
     35 H5         -1.4870   -0.8510   -3.4970 hc        1 4M7      0.051200
     36 H6         -0.2880   -1.6280   -5.6640 h1        1 4M7      0.069200
     37 H7         -1.0570    0.0040   -5.6080 h1        1 4M7      0.069200
     38 H9          3.7540   -0.6500   -6.5110 ha        1 4M7      0.107000
     39 H10         5.8160   -1.0110   -5.2090 ha        1 4M7      0.113000
     40 H11         5.8360   -0.7240   -2.7270 ha        1 4M7      0.124000
     41 H12         5.1920    0.5960   -0.3220 hc        1 4M7      0.064700
     42 H13         3.7660    0.3810    0.7880 hc        1 4M7      0.064700
     43 H14         3.8700   -2.1400    0.2970 hc        1 4M7      0.053200
     44 H15         5.3760   -1.8560   -0.6610 hc        1 4M7      0.053200
     45 H16         4.9090   -1.3130    2.3620 h1        1 4M7      0.043700
     46 H17         6.3720   -0.6910    1.4460 h1        1 4M7      0.043700
     47 H18         6.6900   -4.9920    0.8110 ha        1 4M7      0.155000
     48 H19         7.7670   -7.2510    0.9270 ha        1 4M7      0.128000
     49 H20         9.2290   -7.8410    2.8480 ha        1 4M7      0.122000
     50 H21         9.6340   -6.1880    4.6750 ha        1 4M7      0.125000
     51 H22         9.2570   -3.9690    5.6560 ha        1 4M7      0.125000
     52 H23         8.1830   -1.7180    5.5480 ha        1 4M7      0.126000
     53 H24         6.7300   -1.1000    3.6530 ha        1 4M7      0.147000
@<TRIPOS>BOND
     1    1    2 1   
     2    2    3 1   
     3    2    4 1   
     4    4    5 1   
     5    4   17 2   
     6    5    6 1   
     7    5    7 1   
     8    6   12 ar  
     9    6   16 ar  
    10    7    8 1   
    11    7   32 1   
    12    7   33 1   
    13    8    9 1   
    14    8   34 1   
    15    8   35 1   
    16    9   10 1   
    17    9   36 1   
    18    9   37 1   
    19   10   11 2   
    20   10   12 1   
    21   12   13 ar  
    22   13   14 ar  
    23   13   38 1   
    24   14   15 ar  
    25   14   39 1   
    26   15   16 ar  
    27   15   40 1   
    28   16   17 1   
    29   17   18 1   
    30   18   19 1   
    31   18   41 1   
    32   18   42 1   
    33   19   20 1   
    34   19   43 1   
    35   19   44 1   
    36   20   21 1   
    37   20   45 1   
    38   20   46 1   
    39   21   22 1   
    40   22   23 ar  
    41   22   31 ar  
    42   23   24 ar  
    43   23   28 ar  
    44   24   25 ar  
    45   24   47 1   
    46   25   26 ar  
    47   25   48 1   
    48   26   27 ar  
    49   26   49 1   
    50   27   28 ar  
    51   27   50 1   
    52   28   29 ar  
    53   29   30 ar  
    54   29   51 1   
    55   30   31 ar  
    56   30   52 1   
    57   31   53 1   
@<TRIPOS>SUBSTRUCTURE
     1 4M7         1 TEMP              0 ****  ****    0 ROOT
