@<TRIPOS>MOLECULE
4M9
   44    46     1     0     0
SMALL
bcc


@<TRIPOS>ATOM
      1 O2           0.0000     0.0000     0.0000 o          1 4M9      -0.639500
      2 C2           1.2190     0.0000     0.0000 c          1 4M9       0.612700
      3 N3           2.0370     0.0000     1.0750 n          1 4M9      -0.004300
      4 CA3          1.6170    -0.0010     2.4780 c3         1 4M9      -0.111000
      5 C            1.4720    -1.4220     2.9590 c          1 4M9       0.637900
      6 O            2.0720    -1.7920     3.9390 o          1 4M9      -0.537100
      7 CA2          2.1080    -0.0060    -1.1700 cc         1 4M9      -0.193600
      8 N2           3.3700    -0.0030    -0.6880 nc         1 4M9      -0.463300
      9 C1           3.3390    -0.0000     0.6190 cd         1 4M9       0.094600
     10 CA1          4.5270     0.0000     1.4840 cf         1 4M9       0.384000
     11 N            4.3910     0.0010     2.7720 n2         1 4M9      -0.726100
     12 CB1          5.9050     0.0000     0.8720 c3         1 4M9      -0.032700
     13 CG1          6.9570     0.0010     1.9830 c3         1 4M9      -0.086400
     14 CB2          1.7270    -0.0130    -2.5080 cf         1 4M9       0.231000
     15 CG2          2.7090    -0.0190    -3.5200 cd         1 4M9      -0.209200
     16 CD1          4.0810    -0.0180    -3.3480 cc         1 4M9      -0.198100
     17 NE1          4.6860    -0.0240    -4.5510 na         1 4M9       0.417600
     18 CE2          3.7520    -0.0290    -5.5680 ca         1 4M9      -0.250200
     19 CD2          2.4770    -0.0320    -4.9790 ca         1 4M9      -0.029800
     20 CZ2          3.8600    -0.0360    -6.9550 ca         1 4M9      -0.085000
     21 CH2          2.7230    -0.0390    -7.7340 ca         1 4M9      -0.098000
     22 CZ3          1.4660    -0.0360    -7.1490 ca         1 4M9      -0.110000
     23 CE3          1.3380    -0.0430    -5.7760 ca         1 4M9      -0.063000
     24 C3           8.3340     0.0010     1.3700 c          1 4M9       0.311100
     25 N4           9.4230     0.0010     2.1640 nz         1 4M9       0.195600
     26 O5           8.4610     0.0010     0.1650 o          1 4M9      -0.405100
     27 H1           2.3600     0.5090     3.0790 h1         1 4M9       0.069200
     28 H2           0.6660     0.5100     2.5710 h1         1 4M9       0.069200
     29 H3           0.8150    -2.1060     2.4350 h4         1 4M9      -0.008800
     30 H4           3.4770     0.0010     3.1790 hn         1 4M9       0.384400
     31 H5           6.0270     0.8840     0.2580 hc         1 4M9       0.047700
     32 H6           6.0270    -0.8850     0.2600 hc         1 4M9       0.047700
     33 H7           6.8350    -0.8840     2.5960 hc         1 4M9       0.072700
     34 H8           6.8340     0.8850     2.5960 hc         1 4M9       0.072700
     35 H9           0.6770    -0.0150    -2.7720 ha         1 4M9       0.121000
     36 H10          4.5910    -0.0140    -2.3930 h4         1 4M9       0.175000
     37 H11          5.6770    -0.0250    -4.6900 hn         1 4M9       0.113700
     38 H12          4.7690    -0.0370    -7.5460 ha         1 4M9       0.109000
     39 H13          2.7830    -0.0470    -8.8160 ha         1 4M9       0.111000
     40 H14          0.6210    -0.0210    -7.8270 ha         1 4M9       0.113000
     41 H15          0.2770    -0.0730    -5.5580 ha         1 4M9       0.117000
     42 H16          9.4580    -0.8540     2.6830 hn         1 4M9       0.247800
     43 H17         10.2470     0.0830     1.6010 hn         1 4M9       0.247800
     44 H43          9.3750     0.7740     2.7980 hn         1 4M9       0.247800
@<TRIPOS>BOND
     1     1     2 2   
     2     2     3 1   
     3     2     7 1   
     4     3     4 1   
     5     3     9 1   
     6     4     5 1   
     7     4    27 1   
     8     4    28 1   
     9     5     6 2   
    10     5    29 1   
    11     7     8 1   
    12     7    14 2   
    13     8     9 2   
    14     9    10 1   
    15    10    11 2   
    16    10    12 1   
    17    11    30 1   
    18    12    13 1   
    19    12    31 1   
    20    12    32 1   
    21    13    24 1   
    22    13    33 1   
    23    13    34 1   
    24    14    15 1   
    25    14    35 1   
    26    15    16 2   
    27    15    19 1   
    28    16    17 1   
    29    16    36 1   
    30    17    18 1   
    31    17    37 1   
    32    18    19 ar  
    33    18    20 ar  
    34    19    23 ar  
    35    20    21 ar  
    36    20    38 1   
    37    21    22 ar  
    38    21    39 1   
    39    22    23 ar  
    40    22    40 1   
    41    23    41 1   
    42    24    25 1   
    43    24    26 2   
    44    25    42 1   
    45    25    43 1   
    46    25    44 1   
@<TRIPOS>SUBSTRUCTURE
     1 4M9         1 TEMP              0 ****  ****    0 ROOT
