@<TRIPOS>MOLECULE
molecule
   44    46     1     0     0
SMALL
bcc


@<TRIPOS>ATOM
      1 O2           0.0000     0.0000     0.0000 o          1 4M9      -0.597500
      2 C2           1.2190     0.0000     0.0000 c          1 4M9       0.676700
      3 N3           2.0370     0.0000     1.0750 n          1 4M9      -0.381300
      4 CA3          1.6170    -0.0010     2.4780 c3         1 4M9      -0.007000
      5 C            1.4720    -1.4220     2.9590 c          1 4M9       0.558900
      6 O            2.0720    -1.7920     3.9390 o          1 4M9      -0.512100
      7 CA2          2.1080    -0.0060    -1.1700 cc         1 4M9      -0.111600
      8 N2           3.3700    -0.0030    -0.6880 nd         1 4M9      -0.598300
      9 C1           3.3390    -0.0000     0.6190 cc         1 4M9       0.345600
     10 CA1          4.5270     0.0000     1.4840 ce         1 4M9       0.437000
     11 N            4.3910     0.0010     2.7720 n2         1 4M9      -0.767100
     12 CB1          5.9050     0.0000     0.8720 c3         1 4M9      -0.157700
     13 CG1          6.9570     0.0010     1.9830 c3         1 4M9      -0.175400
     14 CB2          1.7270    -0.0130    -2.5080 cf         1 4M9       0.148000
     15 CG2          2.7090    -0.0190    -3.5200 cd         1 4M9      -0.192200
     16 CD1          4.0810    -0.0180    -3.3480 cc         1 4M9      -0.010100
     17 NE1          4.6860    -0.0240    -4.5510 na         1 4M9      -0.153400
     18 CE2          3.7520    -0.0290    -5.5680 ca         1 4M9      -0.052200
     19 CD2          2.4770    -0.0320    -4.9790 ca         1 4M9      -0.052800
     20 CZ2          3.8600    -0.0360    -6.9550 ca         1 4M9      -0.133000
     21 CH2          2.7230    -0.0390    -7.7340 ca         1 4M9      -0.117000
     22 CZ3          1.4660    -0.0360    -7.1490 ca         1 4M9      -0.143000
     23 CE3          1.3380    -0.0430    -5.7760 ca         1 4M9      -0.092000
     24 C3           8.3340     0.0010     1.3700 c          1 4M9       0.483100
     25 N4           9.4230     0.0010     2.1640 nz         1 4M9      -0.686400
     26 O5           8.4610     0.0010     0.1650 o          1 4M9      -0.386100
     27 H1           0.6660     0.5100     2.5710 h1         1 4M9       0.098700
     28 H2           2.3610     0.5080     3.0780 h1         1 4M9       0.098700
     29 H3           0.8150    -2.1060     2.4350 h4         1 4M9       0.014200
     30 H4           5.2010     0.0010     3.3610 hn         1 4M9       0.389400
     31 H5           6.0270    -0.8850     0.2600 hc         1 4M9       0.096200
     32 H6           6.0270     0.8840     0.2580 hc         1 4M9       0.096200
     33 H7           6.8350    -0.8840     2.5960 hc         1 4M9       0.100200
     34 H8           6.8340     0.8850     2.5960 hc         1 4M9       0.100200
     35 H9           0.6770    -0.0150    -2.7720 ha         1 4M9       0.170000
     36 H10          4.5910    -0.0140    -2.3930 h4         1 4M9       0.201000
     37 H11          5.6770    -0.0250    -4.6900 hn         1 4M9       0.300700
     38 H12          4.7710    -0.0370    -7.5430 ha         1 4M9       0.136000
     39 H13          2.7870    -0.0440    -8.8150 ha         1 4M9       0.141000
     40 H14          0.6210    -0.0300    -7.8270 ha         1 4M9       0.142000
     41 H15          0.2780    -0.0570    -5.5520 ha         1 4M9       0.146000
     42 H16          9.4290    -0.8290     2.7230 hn         1 4M9       0.481133
     43 H17         10.2480     0.0270     1.5980 hn         1 4M9       0.481133
     44 H43          9.4020     0.8050     2.7600 hn         1 4M9       0.481133
@<TRIPOS>BOND
     1     6     5 2   
     2     5     4 1   
     3     4     3 1   
     4     1     2 2   
     5     3     2 1   
     6     3     9 1   
     7     2     7 1   
     8    11    10 2   
     9    10     9 1   
    10    10    12 1   
    11     9     8 2   
    12    13    12 1   
    13    13    24 1   
    14     7     8 1   
    15     7    14 2   
    16    25    24 1   
    17    14    15 1   
    18    24    26 2   
    19    15    16 2   
    20    15    19 1   
    21    23    19 ar  
    22    23    22 ar  
    23    16    17 1   
    24    19    18 ar  
    25    22    21 ar  
    26    17    18 1   
    27    18    20 ar  
    28    21    20 ar  
    29     4    27 1   
    30     4    28 1   
    31     5    29 1   
    32    11    30 1   
    33    12    31 1   
    34    12    32 1   
    35    13    33 1   
    36    13    34 1   
    37    14    35 1   
    38    16    36 1   
    39    17    37 1   
    40    20    38 1   
    41    21    39 1   
    42    22    40 1   
    43    23    41 1   
    44    25    42 1   
    45    25    43 1   
    46    44    25 1   
@<TRIPOS>SUBSTRUCTURE
     1 4M9         1 TEMP              0 ****  ****    0 ROOT
