@<TRIPOS>MOLECULE
4MA
   17    17     1     0     0
SMALL
bcc


@<TRIPOS>ATOM
      1 O1          0.0420    0.0270   -0.0060 o         1 4MA     -0.833300
      2 C7          1.3050    0.0150    0.0420 c         1 4MA      0.906200
      3 O2          1.9720    0.0110    1.1150 o         1 4MA     -0.833300
      4 C1          2.0690    0.0070   -1.2730 ca        1 4MA     -0.123600
      5 C2          1.3840    0.0110   -2.4920 ca        1 4MA     -0.108000
      6 C3          2.0820    0.0030   -3.6980 ca        1 4MA     -0.159000
      7 C4          3.4820   -0.0090   -3.7050 ca        1 4MA     -0.118300
      8 C8          4.2260   -0.0020   -4.9840 c3        1 4MA     -0.033800
      9 C5          4.1690   -0.0160   -2.4850 ca        1 4MA     -0.159000
     10 C6          3.4670   -0.0070   -1.2820 ca        1 4MA     -0.108000
     11 H2          0.2820    0.0210   -2.4710 ha        1 4MA      0.149000
     12 H3          1.5340    0.0060   -4.6510 ha        1 4MA      0.102000
     13 H81         4.4470    1.0500   -5.2960 hc        1 4MA      0.023033
     14 H82         3.6330   -0.4870   -5.7980 hc        1 4MA      0.023033
     15 H83         5.1980   -0.5450   -4.8860 hc        1 4MA      0.023033
     16 H5          5.2680   -0.0280   -2.4820 ha        1 4MA      0.102000
     17 H6          3.9940   -0.0120   -0.3140 ha        1 4MA      0.149000
@<TRIPOS>BOND
     1    1    2 1   
     2    2    3 1   
     3    2    4 1   
     4    4    5 ar  
     5    4   10 ar  
     6    5    6 ar  
     7    5   11 1   
     8    6    7 ar  
     9    6   12 1   
    10    7    8 1   
    11    7    9 ar  
    12    8   13 1   
    13    8   14 1   
    14    8   15 1   
    15    9   10 ar  
    16    9   16 1   
    17   10   17 1   
@<TRIPOS>SUBSTRUCTURE
     1 4MA         1 TEMP              0 ****  ****    0 ROOT
