@<TRIPOS>MOLECULE
molecule
   17    17     1     0     0
SMALL
bcc


@<TRIPOS>ATOM
      1 O1           0.0000     0.0000     0.0000 o          1 4MA      -0.839800
      2 C7           1.3480     0.0000     0.0000 c          1 4MA       0.883200
      3 O2           1.9550     0.0000     1.0510 o          1 4MA      -0.839800
      4 C1           2.0860    -0.0010    -1.2800 ca         1 4MA      -0.105600
      5 C2           1.3910    -0.0020    -2.4910 ca         1 4MA      -0.099000
      6 C3           2.0860     0.0020    -3.6820 ca         1 4MA      -0.160500
      7 C4           3.4710    -0.0040    -3.6780 ca         1 4MA      -0.116300
      8 C8           4.2240    -0.0050    -4.9830 c3         1 4MA      -0.037800
      9 C5           4.1650    -0.0030    -2.4820 ca         1 4MA      -0.160500
     10 C6           3.4820    -0.0010    -1.2830 ca         1 4MA      -0.099000
     11 H2           0.3080     0.0030    -2.4950 ha         1 4MA       0.147500
     12 H3           1.5480     0.0010    -4.6220 ha         1 4MA       0.102500
     13 H81          3.5460    -0.2500    -5.7910 hc         1 4MA       0.025700
     14 H82          4.6510     0.9760    -5.1540 hc         1 4MA       0.025700
     15 H83          5.0170    -0.7420    -4.9410 hc         1 4MA       0.025700
     16 H5           5.2490    -0.0060    -2.4860 ha         1 4MA       0.102500
     17 H6           4.0270    -0.0000    -0.3470 ha         1 4MA       0.147500
@<TRIPOS>BOND
     1     1     2 1   
     2     2     3 1   
     3     2     4 1   
     4     4     5 ar  
     5     4    10 ar  
     6     5     6 ar  
     7     5    11 1   
     8     6     7 ar  
     9     6    12 1   
    10     7     8 1   
    11     7     9 ar  
    12     8    13 1   
    13     8    14 1   
    14     8    15 1   
    15     9    10 ar  
    16     9    16 1   
    17    10    17 1   
@<TRIPOS>SUBSTRUCTURE
     1 4MA         1 TEMP              0 ****  ****    0 ROOT
