@<TRIPOS>MOLECULE
4MB
   22    22     1     0     0
SMALL
bcc


@<TRIPOS>ATOM
      1 C3           0.0000     0.0000     0.0000 ca         1 4MB      -0.136000
      2 C5           0.0130    -0.0130     2.3980 ca         1 4MB      -0.092600
      3 N1           2.0860     0.0070    -1.2040 nu         1 4MB      -0.409500
      4 C2           1.3930     0.0000     0.0000 ca         1 4MB      -0.014400
      5 C4          -0.6870    -0.0120     1.1870 ca         1 4MB      -0.073500
      6 C6          -0.7220    -0.0200     3.6760 c          1 4MB       0.971200
      7 C9           1.4110    -0.0070     2.3940 ca         1 4MB      -0.073500
      8 C12          3.1090    -2.5080    -1.0310 c3         1 4MB       0.010700
      9 C10          2.0920     0.0000     1.2040 ca         1 4MB      -0.136000
     10 O7          -0.1130    -0.0210     4.7270 o          1 4MB      -0.883300
     11 O8          -2.0690    -0.0260     3.6770 o          1 4MB      -0.883300
     12 S11          2.1880    -1.3770    -2.1090 s6         1 4MB       0.937900
     13 O14          2.9660    -0.9670    -3.2250 o          1 4MB      -0.594800
     14 O13          0.8280    -1.7690    -2.2390 o          1 4MB      -0.594800
     15 H3          -0.5410     0.0010    -0.9390 ha         1 4MB       0.098500
     16 HN1          2.5390     0.8440    -1.5160 hn         1 4MB       0.335800
     17 H4          -1.7700    -0.0120     1.1860 ha         1 4MB       0.126500
     18 H9           1.9550    -0.0070     3.3310 ha         1 4MB       0.126500
     19 H121         2.4440    -2.9070    -0.2740 h1         1 4MB       0.061700
     20 H122         3.9190    -1.9710    -0.5520 h1         1 4MB       0.061700
     21 H123         3.5130    -3.3210    -1.6210 h1         1 4MB       0.061700
     22 H10          3.1750     0.0020     1.2010 ha         1 4MB       0.098500
@<TRIPOS>BOND
     1     1     4 ar  
     2     1     5 ar  
     3     1    15 1   
     4     2     5 ar  
     5     2     6 1   
     6     2     7 ar  
     7     3     4 1   
     8     3    12 1   
     9     3    16 1   
    10     4     9 ar  
    11     5    17 1   
    12     6    10 1   
    13     6    11 1   
    14     7     9 ar  
    15     7    18 1   
    16     8    12 1   
    17     8    19 1   
    18     8    20 1   
    19     8    21 1   
    20     9    22 1   
    21    12    13 2   
    22    12    14 2   
@<TRIPOS>SUBSTRUCTURE
     1 4MB         1 TEMP              0 ****  ****    0 ROOT
