@<TRIPOS>MOLECULE
molecule
   83    85     1     0     0
SMALL
bcc


@<TRIPOS>ATOM
      1 O5           0.0000     0.0000     0.0000 o          1 4MC      -0.654300
      2 S1           1.4540     0.0000     0.0000 sy         1 4MC       1.219200
      3 O4           2.1730     0.0000     1.2640 o          1 4MC      -0.654300
      4 CAB          1.9840    -1.4380    -0.8860 ca         1 4MC      -0.274500
      5 CAD          1.1410    -1.9950    -1.8300 ca         1 4MC      -0.037500
      6 CAF          1.5580    -3.1280    -2.5290 ca         1 4MC      -0.138500
      7 CAE          2.8110    -3.6840    -2.2700 ca         1 4MC      -0.063000
      8 CAC          3.6460    -3.1060    -1.3130 ca         1 4MC      -0.138500
      9 CAA          3.2290    -1.9740    -0.6150 ca         1 4MC      -0.037500
     10 C28          2.0240     1.2740    -1.0030 ce         1 4MC      -0.367100
     11 C27          1.7810     2.5290    -0.6060 c2         1 4MC      -0.012200
     12 C18          2.2110     3.7380    -1.3900 c3         1 4MC       0.130900
     13 C19          3.0920     4.6990    -0.5730 c3         1 4MC      -0.085400
     14 C20          3.5930     5.9300    -1.3430 c3         1 4MC      -0.028100
     15 C21          4.5020     6.8290    -0.5430 ca         1 4MC      -0.094300
     16 C26          3.9550     7.8640     0.2000 ca         1 4MC      -0.123000
     17 C25          4.7960     8.6950     0.9400 ca         1 4MC      -0.122000
     18 C24          6.1740     8.4820     0.9270 ca         1 4MC      -0.120000
     19 C23          6.7120     7.4370     0.1750 ca         1 4MC      -0.122000
     20 C22          5.8710     6.6060    -0.5650 ca         1 4MC      -0.123000
     21 N2           1.0120     4.4150    -1.8280 ns         1 4MC      -0.592900
     22 C17          0.3670     4.1130    -3.0200 c          1 4MC       0.659100
     23 O3           0.7350     3.2550    -3.8200 o          1 4MC      -0.582100
     24 C9          -0.8920     4.9460    -3.2290 c3         1 4MC       0.065700
     25 C10         -2.1490     4.2630    -2.6690 c3         1 4MC      -0.090400
     26 C11         -2.4430     2.9330    -3.3780 c3         1 4MC      -0.114400
     27 C01         -3.7290     2.2760    -2.8810 c3         1 4MC       0.250800
     28 N01         -3.6300     1.9550    -1.4780 nu         1 4MC      -0.866200
     29 C02         -3.1200     0.8000    -0.9230 c2         1 4MC       0.699100
     30 N03         -2.6500    -0.1620    -1.6740 n2         1 4MC      -0.758100
     31 N02         -3.1270     0.7100     0.4460 nz         1 4MC      -0.796600
     32 N1          -1.0160     5.1150    -4.6590 ns         1 4MC      -0.611900
     33 C8          -1.5740     6.2570    -5.2240 c          1 4MC       0.799100
     34 O2          -1.9920     7.1880    -4.5280 o          1 4MC      -0.637100
     35 N3          -1.6330     6.2690    -6.6290 n          1 4MC      -0.514800
     36 C39         -2.3760     7.3400    -7.2970 c3         1 4MC       0.113000
     37 C40         -1.6480     7.8570    -8.5350 c3         1 4MC       0.145800
     38 C48         -1.1570     5.2030    -7.5190 c3         1 4MC       0.113000
     39 C49         -0.4820     5.7650    -8.7740 c3         1 4MC       0.145800
     40 N4          -1.3380     6.7490    -9.4480 n3         1 4MC      -0.721600
     41 C33         -0.6900     7.2480   -10.6610 c3         1 4MC       0.149100
     42 H331        -1.3460     7.9540   -11.1560 h1         1 4MC       0.038033
     43 H332         0.2380     7.7410   -10.3970 h1         1 4MC       0.038033
     44 H333        -0.4820     6.4190   -11.3260 h1         1 4MC       0.038033
     45 H491         0.4480     6.2420    -8.4910 h1         1 4MC       0.046450
     46 H492        -0.2750     4.9510    -9.4580 h1         1 4MC       0.046450
     47 H481        -2.0000     4.5930    -7.8180 h1         1 4MC       0.053450
     48 H482        -0.4430     4.5900    -6.9820 h1         1 4MC       0.053450
     49 H391        -3.3460     6.9610    -7.5940 h1         1 4MC       0.053450
     50 H392        -2.5100     8.1600    -6.6020 h1         1 4MC       0.053450
     51 H401        -2.2780     8.5740    -9.0460 h1         1 4MC       0.046450
     52 H402        -0.7250     8.3370    -8.2320 h1         1 4MC       0.046450
     53 HN1         -0.6890     4.3870    -5.2620 hn         1 4MC       0.336500
     54 H9          -0.7680     5.9150    -2.7600 h1         1 4MC       0.094700
     55 H101        -2.0060     4.0740    -1.6120 hc         1 4MC       0.047200
     56 H102        -2.9970     4.9250    -2.7970 hc         1 4MC       0.047200
     57 H111        -2.5320     3.1160    -4.4420 hc         1 4MC       0.073700
     58 H112        -1.6150     2.2550    -3.2070 hc         1 4MC       0.073700
     59 H011        -4.5580     2.9550    -3.0350 h1         1 4MC       0.078700
     60 H012        -3.9040     1.3660    -3.4430 h1         1 4MC       0.078700
     61 H01         -3.9710     2.6450    -0.8370 hn         1 4MC       0.430800
     62 H03         -2.2840    -0.9930    -1.2530 hn         1 4MC       0.447400
     63 H021        -2.7940    -0.1930     0.7230 hn         1 4MC       0.467800
     64 H022        -4.0600     0.8380     0.7840 hn         1 4MC       0.467800
     65 HN2          0.6280     5.1330    -1.2460 hn         1 4MC       0.322500
     66 H18          2.7660     3.4110    -2.2610 h1         1 4MC       0.094700
     67 H191         2.5220     5.0410     0.2820 hc         1 4MC       0.056200
     68 H192         3.9530     4.1490    -0.2130 hc         1 4MC       0.056200
     69 H201         4.1300     5.5910    -2.2210 hc         1 4MC       0.050200
     70 H202         2.7340     6.5070    -1.6650 hc         1 4MC       0.050200
     71 H26          2.8840     8.0250     0.2070 ha         1 4MC       0.129000
     72 H25          4.3790     9.5060     1.5250 ha         1 4MC       0.136000
     73 H24          6.8270     9.1280     1.5010 ha         1 4MC       0.138000
     74 H23          7.7820     7.2720     0.1650 ha         1 4MC       0.136000
     75 H22          6.2830     5.7930    -1.1510 ha         1 4MC       0.129000
     76 H27          1.2420     2.6870     0.3200 ha         1 4MC       0.118000
     77 H28          2.5530     1.0740    -1.9270 h4         1 4MC       0.202000
     78 HAA          3.8720    -1.5200     0.1290 ha         1 4MC       0.149000
     79 HAC          4.6190    -3.5380    -1.1120 ha         1 4MC       0.148000
     80 HAE          3.1350    -4.5640    -2.8120 ha         1 4MC       0.148000
     81 HAF          0.9090    -3.5760    -3.2720 ha         1 4MC       0.148000
     82 HAD          0.1700    -1.5560    -2.0250 ha         1 4MC       0.149000
     83 H023        -2.5270     1.4120     0.8300 hn         1 4MC       0.467800
@<TRIPOS>BOND
     1     1     2 2   
     2     2    10 1   
     3     2     3 2   
     4     2     4 1   
     5     4     9 ar  
     6     4     5 ar  
     7     5     6 ar  
     8     5    82 1   
     9     6     7 ar  
    10     6    81 1   
    11     7     8 ar  
    12     7    80 1   
    13     8     9 ar  
    14     8    79 1   
    15     9    78 1   
    16    10    11 2   
    17    10    77 1   
    18    11    12 1   
    19    11    76 1   
    20    12    21 1   
    21    12    13 1   
    22    12    66 1   
    23    13    14 1   
    24    13    67 1   
    25    13    68 1   
    26    14    15 1   
    27    14    69 1   
    28    14    70 1   
    29    15    16 ar  
    30    15    20 ar  
    31    16    17 ar  
    32    16    71 1   
    33    17    18 ar  
    34    17    72 1   
    35    18    19 ar  
    36    18    73 1   
    37    19    20 ar  
    38    19    74 1   
    39    20    75 1   
    40    21    22 1   
    41    21    65 1   
    42    22    24 1   
    43    22    23 2   
    44    24    32 1   
    45    24    25 1   
    46    24    54 1   
    47    25    26 1   
    48    25    55 1   
    49    25    56 1   
    50    26    27 1   
    51    26    57 1   
    52    26    58 1   
    53    27    28 1   
    54    27    59 1   
    55    27    60 1   
    56    28    29 1   
    57    28    61 1   
    58    29    30 2   
    59    29    31 1   
    60    30    62 1   
    61    31    63 1   
    62    31    64 1   
    63    32    33 1   
    64    32    53 1   
    65    33    35 1   
    66    33    34 2   
    67    35    38 1   
    68    35    36 1   
    69    36    37 1   
    70    36    49 1   
    71    36    50 1   
    72    37    40 1   
    73    37    51 1   
    74    37    52 1   
    75    38    39 1   
    76    38    47 1   
    77    38    48 1   
    78    39    40 1   
    79    39    45 1   
    80    39    46 1   
    81    40    41 1   
    82    41    42 1   
    83    41    43 1   
    84    41    44 1   
    85    83    31 1   
@<TRIPOS>SUBSTRUCTURE
     1 4MC         1 TEMP              0 ****  ****    0 ROOT
