@<TRIPOS>MOLECULE
4MC
   86    88     1     0     0
SMALL
bcc


@<TRIPOS>ATOM
      1 O5          0.1440    1.5940   -1.3150 o         1 4MC     -0.784800
      2 S1          0.5040    0.6560   -0.2620 sy        1 4MC      1.480200
      3 O4         -0.7850    0.2120    0.2100 o         1 4MC     -0.784800
      4 CAB         1.4830   -0.5260   -0.7020 ca        1 4MC     -0.520500
      5 CAD         2.1560   -0.4920   -1.9480 ca        1 4MC     -0.010500
      6 CAF         2.9980   -1.5180   -2.3410 ca        1 4MC     -0.127000
      7 CAE         3.2110   -2.6180   -1.4950 ca        1 4MC      0.029000
      8 CAC         2.5610   -2.6740   -0.2580 ca        1 4MC     -0.127000
      9 CAA         1.7160   -1.6440    0.1310 ca        1 4MC     -0.010500
     10 C28         1.3260    1.5140    0.8850 ce        1 4MC     -0.450100
     11 C27         2.1900    2.5270    0.7560 c2        1 4MC      0.023800
     12 C18         2.6480    3.1070   -0.5640 c3        1 4MC      0.131700
     13 C19         4.0320    3.7530   -0.3860 c3        1 4MC     -0.108400
     14 C20         4.6310    4.2500   -1.6850 c3        1 4MC     -0.066100
     15 C21         4.0350    5.5230   -2.1790 ca        1 4MC     -0.156300
     16 C26         3.3930    5.5640   -3.4260 ca        1 4MC     -0.163500
     17 C25         2.9670    6.7820   -3.9560 ca        1 4MC     -0.132500
     18 C24         3.1650    7.9670   -3.2450 ca        1 4MC     -0.087000
     19 C23         3.7890    7.9310   -1.9960 ca        1 4MC     -0.132500
     20 C22         4.2240    6.7160   -1.4660 ca        1 4MC     -0.163500
     21 N2          1.6420    4.1110   -1.1030 n4        1 4MC     -0.659800
     22 C17         1.0330    3.7740   -2.4290 c         1 4MC      0.540100
     23 O3          1.4780    2.8640   -3.1100 o         1 4MC     -0.384100
     24 C9         -0.1490    4.6740   -2.8500 c3        1 4MC      0.082500
     25 C10        -1.4680    3.9790   -2.4690 c3        1 4MC     -0.099400
     26 C11        -1.8370    2.7480   -3.2700 c3        1 4MC     -0.116400
     27 C01        -3.0620    2.0400   -2.6800 c3        1 4MC      0.115800
     28 N01        -2.6880    0.9710   -1.6940 n4        1 4MC     -0.786000
     29 C02        -3.8640    0.3740   -0.9530 c2        1 4MC      0.620100
     30 N03        -5.1070    0.4950   -1.1890 n2        1 4MC     -0.591100
     31 N02        -3.4620   -0.4950    0.2070 n4        1 4MC     -0.807600
     32 N1         -0.0110    5.0640   -4.2820 n4        1 4MC     -0.704800
     33 C8         -0.9820    6.2860   -4.6640 c         1 4MC      0.633100
     34 O2         -1.6620    6.6290   -3.6920 o         1 4MC     -0.516100
     35 N3         -0.8830    6.8000   -5.9090 n         1 4MC     -0.353800
     36 C39        -1.9590    7.7440   -6.2920 c3        1 4MC      0.067000
     37 C40        -1.6090    8.5980   -7.5250 c3        1 4MC      0.162300
     38 C48        -0.0370    6.2310   -6.9490 c3        1 4MC      0.067000
     39 C49         0.1800    7.1670   -8.1680 c3        1 4MC      0.162300
     40 N4         -1.0590    7.7850   -8.5940 n3        1 4MC     -0.739600
     41 C33        -0.9700    8.4650   -9.8700 c3        1 4MC      0.148100
     42 H331       -0.6230    7.7300  -10.6440 h1        1 4MC      0.068367
     43 H332       -0.2670    9.3400   -9.8530 h1        1 4MC      0.068367
     44 H333       -1.9960    8.8250  -10.1510 h1        1 4MC      0.068367
     45 H491        0.9750    7.9210   -7.8950 h1        1 4MC      0.082950
     46 H492        0.5750    6.5240   -9.0070 h1        1 4MC      0.082950
     47 H481       -0.5060    5.2710   -7.3140 h1        1 4MC      0.073950
     48 H482        0.9870    6.0160   -6.5300 h1        1 4MC      0.073950
     49 H391       -2.1550    8.4290   -5.4180 h1        1 4MC      0.073950
     50 H392       -2.8850    7.1350   -6.5060 h1        1 4MC      0.073950
     51 H401       -0.9150    9.4310   -7.2100 h1        1 4MC      0.082950
     52 H402       -2.5750    9.0630   -7.8790 h1        1 4MC      0.082950
     53 HN1         0.9640    5.3620   -4.4530 hn        1 4MC      0.463300
     54 H9         -0.1300    5.6560   -2.2660 hx        1 4MC      0.160700
     55 H101       -1.3680    3.7000   -1.3840 hc        1 4MC      0.103200
     56 H102       -2.2900    4.7510   -2.5520 hc        1 4MC      0.103200
     57 H111       -2.1250    3.0370   -4.3200 hc        1 4MC      0.106200
     58 H112       -0.9510    2.0550   -3.3390 hc        1 4MC      0.106200
     59 H011       -3.6430    1.5490   -3.5180 hx        1 4MC      0.127700
     60 H012       -3.7250    2.7910   -2.1590 hx        1 4MC      0.127700
     61 H01        -2.1960    0.2150   -2.1960 hn        1 4MC      0.489300
     62 H03        -5.5180    1.0290   -1.9320 hn        1 4MC      0.537400
     63 H021       -3.0180   -1.3600   -0.1390 hn        1 4MC      0.518467
     64 H022       -4.3050   -0.7510    0.7630 hn        1 4MC      0.518467
     65 HN2         0.8840    4.2360   -0.4230 hn        1 4MC      0.483300
     66 H18         2.7390    2.2780   -1.3370 hx        1 4MC      0.130700
     67 H191        3.9860    4.5850    0.3680 hc        1 4MC      0.109200
     68 H192        4.7020    2.9530    0.0430 hc        1 4MC      0.109200
     69 H201        4.5610    3.4510   -2.4710 hc        1 4MC      0.101700
     70 H202        5.7350    4.4270   -1.5100 hc        1 4MC      0.101700
     71 H26         3.3360    4.6480   -4.0350 ha        1 4MC      0.149000
     72 H25         2.5610    6.8280   -4.9790 ha        1 4MC      0.162000
     73 H24         2.8700    8.9370   -3.6830 ha        1 4MC      0.180000
     74 H23         3.9790    8.8720   -1.4460 ha        1 4MC      0.162000
     75 H22         4.7730    6.7050   -0.5080 ha        1 4MC      0.149000
     76 H27         2.6750    2.9790    1.6490 ha        1 4MC      0.205000
     77 H28         1.1550    1.1790    1.9400 h4        1 4MC      0.239000
     78 HAA         1.2160   -1.7020    1.1150 ha        1 4MC      0.147000
     79 HAC         2.7280   -3.5380    0.4140 ha        1 4MC      0.195500
     80 HAE         3.8930   -3.4340   -1.8050 ha        1 4MC      0.203000
     81 HAF         3.5100   -1.4760   -3.3190 ha        1 4MC      0.195500
     82 HAD         1.9950    0.3710   -2.6180 ha        1 4MC      0.147000
     83 H221        2.1470    5.0210   -1.2210 hn        1 4MC      0.483300
     84 H013       -2.0000    1.3710   -1.0170 hn        1 4MC      0.489300
     85 H023       -2.7820   -0.0060    0.8230 hn        1 4MC      0.518467
     86 H12        -0.2230    4.2710   -4.8920 hn        1 4MC      0.463300
@<TRIPOS>BOND
     1    1    2 2   
     2    2    3 2   
     3    2    4 1   
     4    2   10 1   
     5    4    5 ar  
     6    4    9 ar  
     7    5    6 ar  
     8    5   82 1   
     9    6    7 ar  
    10    6   81 1   
    11    7    8 ar  
    12    7   80 1   
    13    8    9 ar  
    14    8   79 1   
    15    9   78 1   
    16   10   11 2   
    17   10   77 1   
    18   11   12 1   
    19   11   76 1   
    20   12   13 1   
    21   12   21 1   
    22   12   66 1   
    23   13   14 1   
    24   13   67 1   
    25   13   68 1   
    26   14   15 1   
    27   14   69 1   
    28   14   70 1   
    29   15   16 ar  
    30   15   20 ar  
    31   16   17 ar  
    32   16   71 1   
    33   17   18 ar  
    34   17   72 1   
    35   18   19 ar  
    36   18   73 1   
    37   19   20 ar  
    38   19   74 1   
    39   20   75 1   
    40   21   22 1   
    41   21   65 1   
    42   21   83 1   
    43   22   23 2   
    44   22   24 1   
    45   24   25 1   
    46   24   32 1   
    47   24   54 1   
    48   25   26 1   
    49   25   55 1   
    50   25   56 1   
    51   26   27 1   
    52   26   57 1   
    53   26   58 1   
    54   27   28 1   
    55   27   59 1   
    56   27   60 1   
    57   28   29 1   
    58   28   61 1   
    59   28   84 1   
    60   29   30 2   
    61   29   31 1   
    62   30   62 1   
    63   31   63 1   
    64   31   64 1   
    65   31   85 1   
    66   32   33 1   
    67   32   53 1   
    68   32   86 1   
    69   33   34 2   
    70   33   35 1   
    71   35   36 1   
    72   35   38 1   
    73   36   37 1   
    74   36   49 1   
    75   36   50 1   
    76   37   40 1   
    77   37   51 1   
    78   37   52 1   
    79   38   39 1   
    80   38   47 1   
    81   38   48 1   
    82   39   40 1   
    83   39   45 1   
    84   39   46 1   
    85   40   41 1   
    86   41   42 1   
    87   41   43 1   
    88   41   44 1   
@<TRIPOS>SUBSTRUCTURE
     1 4MC         1 TEMP              0 ****  ****    0 ROOT
