@<TRIPOS>MOLECULE
4MD
   39    40     1     0     0
SMALL
bcc


@<TRIPOS>ATOM
      1 C1S          0.0000     0.0000     0.0000 ca         1 4MD      -0.070500
      2 C1V          1.3830     0.0000     0.0000 ca         1 4MD      -0.098000
      3 C1Q          2.0740     0.0000     1.1980 ca         1 4MD      -0.023600
      4 Cl1R         3.8100     0.0010     1.1990 cl         1 4MD      -0.007400
      5 C1U          1.3820     0.0010     2.3950 ca         1 4MD      -0.098000
      6 C1T          0.0000     0.0020     2.3950 ca         1 4MD      -0.070500
      7 C1P         -0.6910     0.0010     1.1980 ca         1 4MD      -0.150300
      8 C1J         -2.1980     0.0020     1.1970 c3         1 4MD       0.305100
      9 N1C         -2.6870    -1.3730     1.0690 n3         1 4MD      -0.523500
     10 C1W         -2.7970    -1.9910    -0.2540 c3         1 4MD       0.278100
     11 S1A         -3.1150    -2.2290     2.4210 sy         1 4MD       1.046200
     12 O1F         -2.8900    -3.5990     2.1170 o          1 4MD      -0.567300
     13 O1G         -2.5100    -1.5680     3.5230 o          1 4MD      -0.567300
     14 C1D         -4.8560    -2.0440     2.6260 ca         1 4MD      -0.078500
     15 C1M         -5.7230    -2.8840     1.9520 ca         1 4MD      -0.002500
     16 C1N         -7.0890    -2.7390     2.1130 ca         1 4MD      -0.019000
     17 C1L         -5.3520    -1.0630     3.4640 ca         1 4MD      -0.002500
     18 C1O         -6.7180    -0.9190     3.6240 ca         1 4MD      -0.019000
     19 C1E         -7.5860    -1.7550     2.9470 ca         1 4MD      -0.189500
     20 S1B         -9.3270    -1.5700     3.1510 sy         1 4MD       0.939200
     21 O1H         -9.5410    -0.2280     3.5660 o          1 4MD      -0.493800
     22 O1I         -9.9280    -2.1300     1.9930 o          1 4MD      -0.493800
     23 N1K         -9.7750    -2.5300     4.4220 nz         1 4MD      -0.130500
     24 H1S         -0.5420    -0.0000    -0.9380 ha         1 4MD       0.116000
     25 H1V          1.9250    -0.0010    -0.9380 ha         1 4MD       0.119500
     26 H1U          1.9230     0.0020     3.3340 ha         1 4MD       0.119500
     27 H1T         -0.5420     0.0030     3.3330 ha         1 4MD       0.116000
     28 H1J         -2.5590     0.5920     0.3630 h1         1 4MD       0.022200
     29 H1JA        -2.5590     0.4290     2.1250 h1         1 4MD       0.022200
     30 H1W         -1.8680    -2.4940    -0.4960 h1         1 4MD       0.006700
     31 H1WA        -3.6060    -2.7110    -0.2500 h1         1 4MD       0.006700
     32 H1WB        -2.9970    -1.2260    -0.9940 h1         1 4MD       0.006700
     33 H1M         -5.3330    -3.6550     1.2990 ha         1 4MD       0.148500
     34 H1N         -7.7690    -3.3950     1.5840 ha         1 4MD       0.130000
     35 H1L         -4.6720    -0.4090     3.9950 ha         1 4MD       0.148500
     36 H1O         -7.1090    -0.1490     4.2790 ha         1 4MD       0.130000
     37 HN1K       -10.7630    -2.4520     4.5670 hn         1 4MD       0.315133
     38 HN1A        -9.2930    -2.2370     5.2490 hn         1 4MD       0.315133
     39 H1K3        -9.5420    -3.4820     4.2200 hn         1 4MD       0.315133
@<TRIPOS>BOND
     1     1     2 ar  
     2     1     7 ar  
     3     1    24 1   
     4     2     3 ar  
     5     2    25 1   
     6     3     4 1   
     7     3     5 ar  
     8     5     6 ar  
     9     5    26 1   
    10     6     7 ar  
    11     6    27 1   
    12     7     8 1   
    13     8     9 1   
    14     8    28 1   
    15     8    29 1   
    16     9    10 1   
    17     9    11 1   
    18    10    30 1   
    19    10    31 1   
    20    10    32 1   
    21    11    12 2   
    22    11    13 2   
    23    11    14 1   
    24    14    15 ar  
    25    14    17 ar  
    26    15    16 ar  
    27    15    33 1   
    28    16    19 ar  
    29    16    34 1   
    30    17    18 ar  
    31    17    35 1   
    32    18    19 ar  
    33    18    36 1   
    34    19    20 1   
    35    20    21 2   
    36    20    22 2   
    37    20    23 1   
    38    23    37 1   
    39    23    38 1   
    40    23    39 1   
@<TRIPOS>SUBSTRUCTURE
     1 4MD         1 TEMP              0 ****  ****    0 ROOT
