@<TRIPOS>MOLECULE
molecule
   22    23     1     0     0
SMALL
bcc


@<TRIPOS>ATOM
      1 CAJ          0.0000     0.0000     0.0000 c3         1 4ME       0.140700
      2 OAM          1.4510     0.0000     0.0000 os         1 4ME      -0.431900
      3 CAI          2.0630     0.0000     1.2010 c          1 4ME       0.651700
      4 OAL          1.4010     0.0000     2.2200 o          1 4ME      -0.552000
      5 CAG          3.5340     0.0000     1.2780 ca         1 4ME      -0.094600
      6 CAB          4.2990    -0.0010     0.1140 ca         1 4ME      -0.095000
      7 CAA          5.6790    -0.0000     0.1890 ca         1 4ME      -0.136000
      8 CAC          6.3230    -0.0000     1.4110 ca         1 4ME      -0.106000
      9 CAH          5.5870    -0.0000     2.5900 ca         1 4ME      -0.064200
     10 CAF          4.1810     0.0060     2.5330 ca         1 4ME      -0.044800
     11 CAD          3.7200     0.0130     3.8710 cc         1 4ME      -0.185200
     12 CAE          4.7950     0.0180     4.6780 cd         1 4ME      -0.104100
     13 NAK          5.9350    -0.0010     3.9240 na         1 4ME      -0.178400
     14 HAJ1        -0.3610    -0.8840     0.5110 h1         1 4ME       0.048033
     15 HAJ2        -0.3610    -0.0000    -1.0210 h1         1 4ME       0.048033
     16 HAJ3        -0.3610     0.8850     0.5110 h1         1 4ME       0.048033
     17 HAB          3.8110    -0.0010    -0.8530 ha         1 4ME       0.147000
     18 HAA          6.2640    -0.0010    -0.7230 ha         1 4ME       0.135000
     19 HAC          7.4050    -0.0000     1.4510 ha         1 4ME       0.127000
     20 HAK          6.8700    -0.0020     4.2810 hn         1 4ME       0.298700
     21 HAD          2.6850     0.0250     4.1890 ha         1 4ME       0.179000
     22 HAE          4.7630     0.0340     5.7600 h4         1 4ME       0.168000
@<TRIPOS>BOND
     1     1     2 1   
     2     2     3 1   
     3     3     4 2   
     4     3     5 1   
     5     5     6 ar  
     6     5    10 ar  
     7     6     7 ar  
     8     7     8 ar  
     9     8     9 ar  
    10     9    10 ar  
    11     9    13 1   
    12    10    11 1   
    13    11    12 2   
    14    12    13 1   
    15     1    14 1   
    16     1    15 1   
    17     1    16 1   
    18     6    17 1   
    19     7    18 1   
    20     8    19 1   
    21    13    20 1   
    22    11    21 1   
    23    12    22 1   
@<TRIPOS>SUBSTRUCTURE
     1 4ME         1 TEMP              0 ****  ****    0 ROOT
