@<TRIPOS>MOLECULE
4ME
   22    23     1     0     0
SMALL
bcc


@<TRIPOS>ATOM
      1 CAJ         0.0520    0.0010   -0.0700 c3        1 4ME      0.128700
      2 OAM         1.4760    0.0000    0.0250 os        1 4ME     -0.442900
      3 CAI         2.0040    0.0040    1.2940 c         1 4ME      0.650700
      4 OAL         1.2050    0.0060    2.2360 o         1 4ME     -0.545000
      5 CAG         3.4720    0.0030    1.3290 ca        1 4ME     -0.090600
      6 CAB         4.2270   -0.0020    0.1580 ca        1 4ME     -0.090000
      7 CAA         5.6300   -0.0030    0.1950 ca        1 4ME     -0.138000
      8 CAC         6.3290    0.0010    1.3940 ca        1 4ME     -0.109000
      9 CAH         5.5870    0.0060    2.5830 ca        1 4ME     -0.065200
     10 CAF         4.1370    0.0060    2.5630 ca        1 4ME     -0.048800
     11 CAD         3.7070    0.0110    3.9410 cc        1 4ME     -0.178200
     12 CAE         4.8550    0.0130    4.7280 cd        1 4ME     -0.099100
     13 NAK         5.9950    0.0100    3.9190 na        1 4ME     -0.195400
     14 HAJ1       -0.3630    0.9170    0.4150 h1        1 4ME      0.049700
     15 HAJ2       -0.1380   -0.0020   -1.1710 h1        1 4ME      0.049700
     16 HAJ3       -0.3640   -0.9120    0.4200 h1        1 4ME      0.049700
     17 HAB         3.7120   -0.0050   -0.8170 ha        1 4ME      0.152000
     18 HAA         6.1870   -0.0060   -0.7540 ha        1 4ME      0.136000
     19 HAC         7.4270    0.0010    1.4100 ha        1 4ME      0.135000
     20 HAK         6.9280    0.0110    4.2300 hn        1 4ME      0.299700
     21 HAD         2.6690    0.0130    4.2700 ha        1 4ME      0.183000
     22 HAE         4.9490    0.0170    5.8160 h4        1 4ME      0.168000
@<TRIPOS>BOND
     1    1    2 1   
     2    1   14 1   
     3    1   15 1   
     4    1   16 1   
     5    2    3 1   
     6    3    4 2   
     7    3    5 1   
     8    5    6 ar  
     9    5   10 ar  
    10    6    7 ar  
    11    6   17 1   
    12    7    8 ar  
    13    7   18 1   
    14    8    9 ar  
    15    8   19 1   
    16    9   10 ar  
    17    9   13 1   
    18   10   11 1   
    19   11   12 2   
    20   11   21 1   
    21   12   13 1   
    22   12   22 1   
    23   13   20 1   
@<TRIPOS>SUBSTRUCTURE
     1 4ME         1 TEMP              0 ****  ****    0 ROOT
