@<TRIPOS>MOLECULE
molecule
   58    62     1     0     0
SMALL
bcc


@<TRIPOS>ATOM
      1 CAD          0.0000     0.0000     0.0000 c3         1 4MG       0.041600
      2 NBD          1.4650     0.0000     0.0000 na         1 4MG      -0.073400
      3 CAW          2.2510     0.0000     1.1200 cc         1 4MG      -0.051300
      4 CAC          1.7380    -0.0020     2.5360 c3         1 4MG      -0.029900
      5 CAV          3.5470     0.0010     0.7690 cd         1 4MG      -0.151400
      6 CAB          4.7280     0.0010     1.7050 c3         1 4MG      -0.011900
      7 CAZ          3.5950     0.0030    -0.6950 ca         1 4MG      -0.079800
      8 CAJ          4.6320     0.0040    -1.6300 ca         1 4MG      -0.076000
      9 CBA          2.2570    -0.0040    -1.1290 ca         1 4MG      -0.046200
     10 CAI          1.9770    -0.0040    -2.4910 ca         1 4MG      -0.128000
     11 CAH          3.0060     0.0030    -3.4060 ca         1 4MG      -0.138000
     12 CAS          4.3340     0.0060    -2.9800 ca         1 4MG       0.120600
     13 NAP          5.3690     0.0130    -3.9230 nu         1 4MG      -0.749300
     14 C2           6.5620    -0.6360    -3.6470 ca         1 4MG       0.965900
     15 N3           7.5670    -0.5310    -4.5030 nb         1 4MG      -0.841000
     16 N1           6.6710    -1.3400    -2.5300 nb         1 4MG      -0.796000
     17 C6           7.7950    -1.9730    -2.2330 ca         1 4MG       0.506200
     18 C5           8.8670    -1.8930    -3.1040 ca         1 4MG      -0.434600
     19 C4           8.7230    -1.1390    -4.2680 ca         1 4MG       0.635800
     20 NBE          9.7790    -1.0260    -5.1730 na         1 4MG       0.031600
     21 CAK          9.7680    -0.3210    -6.3350 cc         1 4MG      -0.057300
     22 NAO         11.0440    -1.6150    -5.0430 nc         1 4MG      -0.504800
     23 CAT         11.7610    -1.2820    -6.0860 cd         1 4MG       0.365600
     24 CAA         13.1840    -1.7020    -6.3480 c3         1 4MG      -0.113400
     25 CAU         10.9800    -0.4680    -6.9150 cd         1 4MG      -0.293600
     26 CAL         11.4160     0.1420    -8.2220 c3         1 4MG       0.214100
     27 NBC         11.3220    -0.8660    -9.2880 nq         1 4MG      -0.659600
     28 CAN         12.5940    -1.6080    -9.4300 cy         1 4MG       0.098800
     29 CAM         11.5110    -0.2480   -10.6190 cy         1 4MG       0.098800
     30 CBB         12.3850    -1.4720   -10.9490 cy         1 4MG       0.107100
     31 OAE         13.5770    -1.1510   -11.6680 oh         1 4MG      -0.597800
     32 H1          -0.3610    -0.2570    -0.9890 h1         1 4MG       0.046367
     33 H2          -0.3610    -0.7280     0.7170 h1         1 4MG       0.046367
     34 H3          -0.3610     0.9840     0.2720 h1         1 4MG       0.046367
     35 H4           1.3330    -0.9780     2.7730 hc         1 4MG       0.048033
     36 H5           0.9610     0.7460     2.6400 hc         1 4MG       0.048033
     37 H6           2.5510     0.2260     3.2150 hc         1 4MG       0.048033
     38 H7           4.6050     0.7850     2.4420 hc         1 4MG       0.037700
     39 H8           4.7930    -0.9580     2.2050 hc         1 4MG       0.037700
     40 H9           5.6360     0.1750     1.1410 hc         1 4MG       0.037700
     41 H10          5.6640     0.0070    -1.3000 ha         1 4MG       0.159000
     42 H11          0.9490    -0.0060    -2.8330 ha         1 4MG       0.125000
     43 H12          2.7830     0.0040    -4.4660 ha         1 4MG       0.130000
     44 H13          5.2480     0.4880    -4.7950 hn         1 4MG       0.463800
     45 H14          7.8750    -2.5480    -1.3180 h4         1 4MG       0.035100
     46 H15          9.7980    -2.4000    -2.8840 ha         1 4MG       0.169000
     47 H16          8.9360     0.2520    -6.7270 h4         1 4MG       0.190000
     48 H17         13.6750    -1.9210    -5.4080 hc         1 4MG       0.053033
     49 H18         13.1900    -2.5860    -6.9740 hc         1 4MG       0.053033
     50 H19         13.7100    -0.9000    -6.8520 hc         1 4MG       0.053033
     51 H20         12.4400     0.4840    -8.1380 h1         1 4MG       0.044200
     52 H21         10.7740     0.9810    -8.4610 h1         1 4MG       0.044200
     53 H23         13.4520    -1.0550    -9.0670 h1         1 4MG       0.065450
     54 H24         12.5310    -2.6310    -9.0810 h1         1 4MG       0.065450
     55 H25         12.0710     0.6780   -10.5840 h1         1 4MG       0.065450
     56 H26         10.5990    -0.2070   -11.2030 h1         1 4MG       0.065450
     57 H27         11.8170    -2.2930   -11.3690 h1         1 4MG       0.066700
     58 H28         13.6400    -1.6970   -12.4340 ho         1 4MG       0.403000
@<TRIPOS>BOND
     1    16    17 ar  
     2    16    14 ar  
     3    17    18 ar  
     4    11    10 ar  
     5    11    12 ar  
     6    13    14 1   
     7    13    12 1   
     8    14    15 ar  
     9    10     9 ar  
    10    12     8 ar  
    11    18    19 ar  
    12     9     7 ar  
    13     9     2 1   
    14    15    19 ar  
    15     8     7 ar  
    16     1     2 1   
    17    19    20 1   
    18     7     5 1   
    19     2     3 1   
    20    20    22 1   
    21    20    21 1   
    22     3     5 2   
    23     3     4 1   
    24     5     6 1   
    25    22    23 2   
    26    28    30 1   
    27    28    27 1   
    28    21    25 2   
    29    31    30 1   
    30    30    29 1   
    31    23    25 1   
    32    23    24 1   
    33    25    26 1   
    34    27    29 1   
    35    27    26 1   
    36     1    32 1   
    37     1    33 1   
    38     1    34 1   
    39     4    35 1   
    40     4    36 1   
    41     4    37 1   
    42     6    38 1   
    43     6    39 1   
    44     6    40 1   
    45     8    41 1   
    46    10    42 1   
    47    11    43 1   
    48    13    44 1   
    49    17    45 1   
    50    18    46 1   
    51    21    47 1   
    52    24    48 1   
    53    24    49 1   
    54    24    50 1   
    55    26    51 1   
    56    26    52 1   
    57    28    53 1   
    58    28    54 1   
    59    29    55 1   
    60    29    56 1   
    61    30    57 1   
    62    31    58 1   
@<TRIPOS>SUBSTRUCTURE
     1 4MG         1 TEMP              0 ****  ****    0 ROOT
