@<TRIPOS>MOLECULE
4MH
   66    68     1     0     0
SMALL
bcc


@<TRIPOS>ATOM
      1 C01          0.0000     0.0000     0.0000 c3         1 4MH       0.006900
      2 C02          1.5300     0.0000     0.0000 c3         1 4MH      -0.020400
      3 C03          2.0400     0.0000     1.4430 c3         1 4MH      -0.043400
      4 C04          3.5700    -0.0000     1.4440 c3         1 4MH       0.157800
      5 N05          4.0570     0.0000     2.8250 nu         1 4MH      -0.455900
      6 C06          5.4130    -0.0000     3.0770 ca         1 4MH       0.782900
      7 N07          6.2590    -0.0000     2.0530 nb         1 4MH      -0.757000
      8 C08          7.5640    -0.0000     2.2460 ca         1 4MH       0.558200
      9 C09          8.0590     0.0010     3.5540 ca         1 4MH      -0.589200
     10 C10          9.5070     0.0020     3.8160 c          1 4MH       0.658700
     11 O11          9.9200     0.1060     4.9550 o          1 4MH      -0.681100
     12 N12         10.3770    -0.1130     2.7930 ns         1 4MH      -0.217900
     13 C13         11.8190    -0.1120     3.0530 c3         1 4MH       0.097300
     14 C14         12.5640    -0.2520     1.7500 ca         1 4MH      -0.011300
     15 C15         12.9260     0.8750     1.0370 ca         1 4MH      -0.094000
     16 C16         13.6100     0.7480    -0.1570 ca         1 4MH       0.012500
     17 C17         13.9320    -0.5070    -0.6380 ca         1 4MH      -0.228500
     18 C18         13.5710    -1.6350     0.0760 ca         1 4MH       0.012500
     19 C19         12.8910    -1.5070     1.2720 ca         1 4MH      -0.094000
     20 S20         14.8020    -0.6710    -2.1620 sy         1 4MH       0.937200
     21 O21         14.5080    -1.9700    -2.6550 o          1 4MH      -0.494800
     22 O22         14.5490     0.5170    -2.8990 o          1 4MH      -0.494800
     23 N23         16.4200    -0.6630    -1.8060 nz         1 4MH      -0.131500
     24 C24          7.1300     0.0010     4.6180 ca         1 4MH       0.651200
     25 N25          7.5620     0.0020     5.9270 nu         1 4MH      -0.484900
     26 C26          6.5920    -0.1170     7.0180 c3         1 4MH       0.119500
     27 C27          7.1720     0.5100     8.2880 c3         1 4MH      -0.033900
     28 C28          6.1590     0.3870     9.4280 c3         1 4MH      -0.038400
     29 C29          5.8560    -1.0920     9.6820 c3         1 4MH       0.189100
     30 O30          4.9100    -1.2080    10.7470 oh         1 4MH      -0.582800
     31 C31          5.2750    -1.7190     8.4130 c3         1 4MH      -0.038400
     32 C32          6.2890    -1.5950     7.2730 c3         1 4MH      -0.033900
     33 N33          5.8330     0.0060     4.3340 nb         1 4MH      -0.788000
     34 H011        -0.3610     0.8850     0.5100 hc         1 4MH       0.003700
     35 H012        -0.3610    -0.0010    -1.0210 hc         1 4MH       0.003700
     36 H013        -0.3610    -0.8840     0.5110 hc         1 4MH       0.003700
     37 H021         1.8910     0.8850    -0.5110 hc         1 4MH       0.014200
     38 H022         1.8910    -0.8850    -0.5110 hc         1 4MH       0.014200
     39 H031         1.6790    -0.8840     1.9530 hc         1 4MH       0.020700
     40 H032         1.6790     0.8840     1.9530 hc         1 4MH       0.020700
     41 H041         3.9310    -0.8850     0.9340 h1         1 4MH       0.026700
     42 H042         3.9310     0.8840     0.9330 h1         1 4MH       0.026700
     43 H051         3.4070     0.0210     3.5850 hn         1 4MH       0.305800
     44 H081         8.2440    -0.0000     1.4020 h4         1 4MH      -0.039900
     45 H121        10.0380    -0.2150     1.8570 hn         1 4MH       0.184500
     46 H131        12.0690    -0.9410     3.7030 h1         1 4MH       0.040200
     47 H132        12.0990     0.8190     3.5310 h1         1 4MH       0.040200
     48 H151        12.6740     1.8590     1.4140 ha         1 4MH       0.138000
     49 H161        13.8930     1.6310    -0.7160 ha         1 4MH       0.127000
     50 H181        13.8250    -2.6190    -0.3000 ha         1 4MH       0.127000
     51 H191        12.6080    -2.3900     1.8310 ha         1 4MH       0.138000
     52 H231        16.9480    -0.7540    -2.6510 hn         1 4MH       0.313800
     53 H232        16.6580     0.1980    -1.3550 hn         1 4MH       0.313800
     54 H251         8.5420     0.0350     6.1310 hn         1 4MH       0.355800
     55 H261         5.6760     0.3960     6.7500 h1         1 4MH       0.062700
     56 H271         8.0840    -0.0070     8.5600 hc         1 4MH       0.019700
     57 H272         7.3840     1.5570     8.1070 hc         1 4MH       0.019700
     58 H281         5.2450     0.9000     9.1540 hc         1 4MH       0.026700
     59 H282         6.5730     0.8290    10.3260 hc         1 4MH       0.026700
     60 H291         6.7720    -1.6050     9.9500 h1         1 4MH      -0.002300
     61 H301         5.2890    -1.7060    11.4520 ho         1 4MH       0.389000
     62 H311         5.0630    -2.7650     8.5940 hc         1 4MH       0.026700
     63 H312         4.3630    -1.2010     8.1410 hc         1 4MH       0.026700
     64 H321         7.2030    -2.1080     7.5480 hc         1 4MH       0.019700
     65 H322         5.8760    -2.0390     6.3750 hc         1 4MH       0.019700
     66 H233        16.6320    -1.4310    -1.2000 hn         1 4MH       0.313800
@<TRIPOS>BOND
     1     1     2 1   
     2     1    34 1   
     3     1    35 1   
     4     1    36 1   
     5     2     3 1   
     6     2    37 1   
     7     2    38 1   
     8     3     4 1   
     9     3    39 1   
    10     3    40 1   
    11     4     5 1   
    12     4    41 1   
    13     4    42 1   
    14     5     6 1   
    15     5    43 1   
    16     6     7 ar  
    17     6    33 ar  
    18     7     8 ar  
    19     8     9 ar  
    20     8    44 1   
    21     9    10 1   
    22     9    24 ar  
    23    10    11 2   
    24    10    12 1   
    25    12    13 1   
    26    12    45 1   
    27    13    14 1   
    28    13    46 1   
    29    13    47 1   
    30    14    15 ar  
    31    14    19 ar  
    32    15    16 ar  
    33    15    48 1   
    34    16    17 ar  
    35    16    49 1   
    36    17    18 ar  
    37    17    20 1   
    38    18    19 ar  
    39    18    50 1   
    40    19    51 1   
    41    20    21 2   
    42    20    22 2   
    43    20    23 1   
    44    23    52 1   
    45    23    53 1   
    46    23    66 1   
    47    24    25 1   
    48    24    33 ar  
    49    25    26 1   
    50    25    54 1   
    51    26    27 1   
    52    26    32 1   
    53    26    55 1   
    54    27    28 1   
    55    27    56 1   
    56    27    57 1   
    57    28    29 1   
    58    28    58 1   
    59    28    59 1   
    60    29    30 1   
    61    29    31 1   
    62    29    60 1   
    63    30    61 1   
    64    31    32 1   
    65    31    62 1   
    66    31    63 1   
    67    32    64 1   
    68    32    65 1   
@<TRIPOS>SUBSTRUCTURE
     1 4MH         1 TEMP              0 ****  ****    0 ROOT
