@<TRIPOS>MOLECULE
molecule
   18    18     1     0     0
SMALL
bcc


@<TRIPOS>ATOM
      1 C01          0.0000     0.0000     0.0000 c3         1 4MI      -0.009000
      2 S02          1.8140     0.0000     0.0000 ss         1 4MI      -0.319000
      3 C03          2.2090     0.0000     1.7170 ca         1 4MI       0.018900
      4 C04          1.1890    -0.0050     2.6660 ca         1 4MI      -0.154000
      5 C05          1.4920    -0.0100     3.9980 ca         1 4MI      -0.092500
      6 C06          2.8300    -0.0110     4.4090 ca         1 4MI      -0.099600
      7 C07          3.8520    -0.0060     3.4540 ca         1 4MI      -0.092500
      8 C08          3.5420     0.0000     2.1240 ca         1 4MI      -0.154000
      9 C09          3.1600    -0.0160     5.8450 c          1 4MI       0.881200
     10 O10          4.4500    -0.0160     6.2390 o          1 4MI      -0.836800
     11 O11          2.2710    -0.0200     6.6730 o          1 4MI      -0.836800
     12 H1          -0.3610    -0.8850     0.5090 h1         1 4MI       0.055367
     13 H2          -0.3610     0.0020    -1.0210 h1         1 4MI       0.055367
     14 H3          -0.3610     0.8840     0.5120 h1         1 4MI       0.055367
     15 H4           0.1540    -0.0040     2.3470 ha         1 4MI       0.111500
     16 H5           0.6980    -0.0140     4.7350 ha         1 4MI       0.152500
     17 H6           4.8890    -0.0060     3.7700 ha         1 4MI       0.152500
     18 H7           4.3340     0.0040     1.3840 ha         1 4MI       0.111500
@<TRIPOS>BOND
     1    11     9 1   
     2     9    10 1   
     3     9     6 1   
     4     5     4 ar  
     5     5     6 ar  
     6     4     3 ar  
     7     6     7 ar  
     8     3     8 ar  
     9     3     2 1   
    10     7     8 ar  
    11     1     2 1   
    12     1    12 1   
    13     1    13 1   
    14     1    14 1   
    15     4    15 1   
    16     5    16 1   
    17     7    17 1   
    18     8    18 1   
@<TRIPOS>SUBSTRUCTURE
     1 4MI         1 TEMP              0 ****  ****    0 ROOT
