@<TRIPOS>MOLECULE
4MK
   74    77     1     0     0
SMALL
bcc


@<TRIPOS>ATOM
      1 C1           0.0000     0.0000     0.0000 c3         1 4MK      -0.017100
      2 C2           1.5300     0.0000     0.0000 c3         1 4MK       0.165100
      3 C3           2.0410     0.0000     1.4420 c3         1 4MK      -0.017100
      4 O4           2.0060    -1.1670    -0.6740 os         1 4MK      -0.312900
      5 C5           3.2280    -1.0820    -1.2660 ca         1 4MK       0.120100
      6 C6           4.0020     0.0540    -1.1020 ca         1 4MK      -0.193000
      7 C7           5.2440     0.1380    -1.7050 ca         1 4MK      -0.053300
      8 C8           6.0850     1.3760    -1.5240 c3         1 4MK      -0.007400
      9 C9           5.2930     2.6030    -1.9860 c3         1 4MK      -0.022400
     10 C10          6.1280     3.8630    -1.7450 c3         1 4MK       0.146800
     11 N11          6.4460     3.9740    -0.3160 n7         1 4MK      -0.581200
     12 C12          7.2470     2.8290     0.1390 c3         1 4MK       0.146800
     13 C13          6.4460     1.5390    -0.0460 c3         1 4MK      -0.022400
     14 C14          5.7170    -0.9100    -2.4710 ca         1 4MK      -0.105300
     15 C15          7.0720    -0.8120    -3.1250 c3         1 4MK       0.066200
     16 C16          4.9510    -2.0490    -2.6390 ca         1 4MK      -0.081000
     17 C17          3.7060    -2.1420    -2.0340 ca         1 4MK      -0.042400
     18 N18          2.9310    -3.2960    -2.2000 nu         1 4MK      -0.252300
     19 C19          3.5440    -4.5160    -2.4340 ca         1 4MK       0.734900
     20 N20          4.8660    -4.5930    -2.3890 nb         1 4MK      -0.723000
     21 C21          5.4890    -5.7420    -2.6080 ca         1 4MK       0.531200
     22 C22          4.7460    -6.8730    -2.8860 ca         1 4MK      -0.424200
     23 Cl1          5.5220    -8.3960    -3.1770 cl         1 4MK       0.014600
     24 C24          3.3530    -6.7590    -2.9260 ca         1 4MK       0.576200
     25 N25          2.5650    -7.8670    -3.2020 nu         1 4MK      -0.346300
     26 C26          1.1740    -7.7760    -3.1120 ca         1 4MK       0.104600
     27 C27          0.5910    -6.9030    -2.2020 ca         1 4MK      -0.147000
     28 C28         -0.7850    -6.8140    -2.1140 ca         1 4MK      -0.029000
     29 C29         -1.5820    -7.5940    -2.9320 ca         1 4MK      -0.155000
     30 C30         -1.0060    -8.4640    -3.8390 ca         1 4MK       0.025000
     31 C31          0.3690    -8.5540    -3.9350 ca         1 4MK      -0.189500
     32 S32          1.1020    -9.6570    -5.0960 sy         1 4MK       0.877300
     33 O33          2.0320   -10.4090    -4.3270 o          1 4MK      -0.589300
     34 O34         -0.0030   -10.2870    -5.7280 o          1 4MK      -0.589300
     35 C35          1.9710    -8.5750    -6.2640 c3         1 4MK      -0.018900
     36 C36          2.5520    -9.4150    -7.4030 c3         1 4MK       0.029900
     37 C37          0.9890    -7.5500    -6.8360 c3         1 4MK       0.029900
     38 N38          2.7940    -5.5770    -2.6920 nb         1 4MK      -0.748000
     39 H1          -0.3610     0.0510    -1.0200 hc         1 4MK       0.013867
     40 H1A         -0.3610     0.8580     0.5540 hc         1 4MK       0.013867
     41 H1B         -0.3610    -0.9090     0.4660 hc         1 4MK       0.013867
     42 H2           1.8910     0.8850    -0.5110 h1         1 4MK       0.023700
     43 H3           1.3420    -0.5360     2.0720 hc         1 4MK       0.013867
     44 H3A          2.1330     1.0210     1.7920 hc         1 4MK       0.013867
     45 H3B          3.0090    -0.4840     1.4830 hc         1 4MK       0.013867
     46 H6           3.6510     0.8610    -0.4690 ha         1 4MK       0.137000
     47 H8           6.9920     1.2920    -2.1100 hc         1 4MK       0.039700
     48 H9           5.0730     2.5140    -3.0430 hc         1 4MK       0.023450
     49 H9A          4.3700     2.6700    -1.4230 hc         1 4MK       0.023450
     50 H10          7.0470     3.8000    -2.3150 h1         1 4MK       0.004450
     51 H10A         5.5630     4.7340    -2.0560 h1         1 4MK       0.004450
     52 HN11         6.9520     4.8220    -0.1510 hn         1 4MK       0.250800
     53 H12          8.1580     2.7740    -0.4430 h1         1 4MK       0.004450
     54 H12A         7.4890     2.9550     1.1880 h1         1 4MK       0.004450
     55 H13          7.0450     0.6940     0.2740 hc         1 4MK       0.023450
     56 H13A         5.5390     1.5900     0.5440 hc         1 4MK       0.023450
     57 H15          7.2570    -1.7060    -3.7070 hc         1 4MK       0.008033
     58 H15A         7.8350    -0.7120    -2.3630 hc         1 4MK       0.008033
     59 H15B         7.0960     0.0540    -3.7760 hc         1 4MK       0.008033
     60 H16          5.3260    -2.8700    -3.2390 ha         1 4MK       0.151000
     61 HN18         1.9330    -3.2400    -2.1500 hn         1 4MK       0.298800
     62 H21          6.5710    -5.7940    -2.5690 h4         1 4MK      -0.010900
     63 HN25         2.9930    -8.7340    -3.4620 hn         1 4MK       0.342800
     64 H27          1.2160    -6.2920    -1.5610 ha         1 4MK       0.144000
     65 H28         -1.2400    -6.1330    -1.4050 ha         1 4MK       0.101000
     66 H29         -2.6610    -7.5250    -2.8600 ha         1 4MK       0.109000
     67 H30         -1.6330    -9.0720    -4.4790 ha         1 4MK       0.130000
     68 H35          2.7740    -8.0590    -5.7500 h1         1 4MK       0.069700
     69 H36          3.1560    -8.7840    -8.0450 hc         1 4MK       0.015700
     70 H36A         3.1670   -10.2060    -6.9910 hc         1 4MK       0.015700
     71 H36B         1.7440    -9.8490    -7.9800 hc         1 4MK       0.015700
     72 H37          0.7300    -6.8310    -6.0690 hc         1 4MK       0.015700
     73 H37A         0.0940    -8.0570    -7.1740 hc         1 4MK       0.015700
     74 H37B         1.4500    -7.0360    -7.6710 hc         1 4MK       0.015700
@<TRIPOS>BOND
     1     1     2 1   
     2     1    39 1   
     3     1    40 1   
     4     1    41 1   
     5     2     3 1   
     6     2     4 1   
     7     2    42 1   
     8     3    43 1   
     9     3    44 1   
    10     3    45 1   
    11     4     5 1   
    12     5     6 ar  
    13     5    17 ar  
    14     6     7 ar  
    15     6    46 1   
    16     7     8 1   
    17     7    14 ar  
    18     8     9 1   
    19     8    13 1   
    20     8    47 1   
    21     9    10 1   
    22     9    48 1   
    23     9    49 1   
    24    10    11 1   
    25    10    50 1   
    26    10    51 1   
    27    11    12 1   
    28    11    52 1   
    29    12    13 1   
    30    12    53 1   
    31    12    54 1   
    32    13    55 1   
    33    13    56 1   
    34    14    15 1   
    35    14    16 ar  
    36    15    57 1   
    37    15    58 1   
    38    15    59 1   
    39    16    17 ar  
    40    16    60 1   
    41    17    18 1   
    42    18    19 1   
    43    18    61 1   
    44    19    20 ar  
    45    19    38 ar  
    46    20    21 ar  
    47    21    22 ar  
    48    21    62 1   
    49    22    23 1   
    50    22    24 ar  
    51    24    25 1   
    52    24    38 ar  
    53    25    26 1   
    54    25    63 1   
    55    26    27 ar  
    56    26    31 ar  
    57    27    28 ar  
    58    27    64 1   
    59    28    29 ar  
    60    28    65 1   
    61    29    30 ar  
    62    29    66 1   
    63    30    31 ar  
    64    30    67 1   
    65    31    32 1   
    66    32    33 2   
    67    32    34 2   
    68    32    35 1   
    69    35    36 1   
    70    35    37 1   
    71    35    68 1   
    72    36    69 1   
    73    36    70 1   
    74    36    71 1   
    75    37    72 1   
    76    37    73 1   
    77    37    74 1   
@<TRIPOS>SUBSTRUCTURE
     1 4MK         1 TEMP              0 ****  ****    0 ROOT
