@<TRIPOS>MOLECULE
molecule
   74    77     1     0     0
SMALL
bcc


@<TRIPOS>ATOM
      1 C1           0.0000     0.0000     0.0000 c3         1 4MK      -0.105600
      2 C2           1.5300     0.0000     0.0000 c3         1 4MK       0.138100
      3 C3           2.0410     0.0000     1.4420 c3         1 4MK      -0.105600
      4 O4           2.0060    -1.1670    -0.6740 os         1 4MK      -0.338900
      5 C5           3.2280    -1.0820    -1.2660 ca         1 4MK       0.107100
      6 C6           4.0020     0.0540    -1.1020 ca         1 4MK      -0.197000
      7 C7           5.2440     0.1380    -1.7050 ca         1 4MK      -0.057300
      8 C8           6.0850     1.3760    -1.5240 c3         1 4MK      -0.028400
      9 C9           5.2930     2.6030    -1.9860 c3         1 4MK      -0.069400
     10 C10          6.1280     3.8630    -1.7450 c3         1 4MK       0.156800
     11 N11          6.4460     3.9740    -0.3160 n7         1 4MK      -0.820200
     12 C12          7.2470     2.8290     0.1390 c3         1 4MK       0.156800
     13 C13          6.4460     1.5390    -0.0460 c3         1 4MK      -0.069400
     14 C14          5.7170    -0.9100    -2.4710 ca         1 4MK      -0.101300
     15 C15          7.0720    -0.8120    -3.1250 c3         1 4MK      -0.039800
     16 C16          4.9510    -2.0490    -2.6390 ca         1 4MK      -0.097000
     17 C17          3.7060    -2.1420    -2.0340 ca         1 4MK       0.127600
     18 N18          2.9310    -3.2960    -2.2000 nu         1 4MK      -0.732300
     19 C19          3.5440    -4.5160    -2.4340 ca         1 4MK       0.970900
     20 N20          4.8660    -4.5930    -2.3890 nb         1 4MK      -0.811000
     21 C21          5.4890    -5.7420    -2.6080 ca         1 4MK       0.533200
     22 C22          4.7460    -6.8730    -2.8860 ca         1 4MK      -0.340200
     23 Cl1          5.5220    -8.3960    -3.1770 cl         1 4MK      -0.088400
     24 C24          3.3530    -6.7590    -2.9260 ca         1 4MK       0.764200
     25 N25          2.5650    -7.8670    -3.2020 nu         1 4MK      -0.779300
     26 C26          1.1740    -7.7760    -3.1120 ca         1 4MK       0.246600
     27 C27          0.5910    -6.9030    -2.2020 ca         1 4MK      -0.152000
     28 C28         -0.7850    -6.8140    -2.1140 ca         1 4MK      -0.062000
     29 C29         -1.5820    -7.5940    -2.9320 ca         1 4MK      -0.172000
     30 C30         -1.0060    -8.4640    -3.8390 ca         1 4MK      -0.011000
     31 C31          0.3690    -8.5540    -3.9350 ca         1 4MK      -0.330500
     32 S32          1.1020    -9.6570    -5.0960 sy         1 4MK       1.199300
     33 O33          2.0320   -10.4090    -4.3270 o          1 4MK      -0.626800
     34 O34         -0.0030   -10.2870    -5.7280 o          1 4MK      -0.626800
     35 C35          1.9710    -8.5750    -6.2640 c3         1 4MK      -0.189900
     36 C36          2.5520    -9.4150    -7.4030 c3         1 4MK      -0.073100
     37 C37          0.9890    -7.5500    -6.8360 c3         1 4MK      -0.073100
     38 N38          2.7940    -5.5770    -2.6920 nb         1 4MK      -0.845000
     39 H1          -0.3610     0.0510    -1.0200 hc         1 4MK       0.047200
     40 H1A         -0.3610     0.8580     0.5540 hc         1 4MK       0.047200
     41 H1B         -0.3610    -0.9090     0.4660 hc         1 4MK       0.047200
     42 H2           1.8910     0.8850    -0.5110 h1         1 4MK       0.049700
     43 H3           1.3420    -0.5360     2.0720 hc         1 4MK       0.047200
     44 H3A          2.1330     1.0210     1.7920 hc         1 4MK       0.047200
     45 H3B          3.0090    -0.4840     1.4830 hc         1 4MK       0.047200
     46 H6           3.6510     0.8610    -0.4690 ha         1 4MK       0.147000
     47 H8           6.9920     1.2920    -2.1100 hc         1 4MK       0.058700
     48 H9           5.0730     2.5140    -3.0430 hc         1 4MK       0.051450
     49 H9A          4.3700     2.6700    -1.4230 hc         1 4MK       0.051450
     50 H10          7.0470     3.8000    -2.3150 h1         1 4MK       0.031200
     51 H10A         5.5630     4.7340    -2.0560 h1         1 4MK       0.031200
     52 HN11         6.9520     4.8220    -0.1510 hn         1 4MK       0.352800
     53 H12          8.1580     2.7740    -0.4430 h1         1 4MK       0.031200
     54 H12A         7.4890     2.9550     1.1880 h1         1 4MK       0.031200
     55 H13          7.0450     0.6940     0.2740 hc         1 4MK       0.051450
     56 H13A         5.5390     1.5900     0.5440 hc         1 4MK       0.051450
     57 H15          7.2570    -1.7060    -3.7070 hc         1 4MK       0.041700
     58 H15A         7.8350    -0.7120    -2.3630 hc         1 4MK       0.041700
     59 H15B         7.0960     0.0540    -3.7760 hc         1 4MK       0.041700
     60 H16          5.3260    -2.8700    -3.2390 ha         1 4MK       0.171000
     61 HN18         1.9330    -3.2400    -2.1500 hn         1 4MK       0.476800
     62 H21          6.5710    -5.7940    -2.5690 h4         1 4MK       0.043100
     63 HN25         2.9930    -8.7340    -3.4620 hn         1 4MK       0.493800
     64 H27          1.2160    -6.2920    -1.5610 ha         1 4MK       0.167000
     65 H28         -1.2400    -6.1330    -1.4050 ha         1 4MK       0.135000
     66 H29         -2.6610    -7.5250    -2.8600 ha         1 4MK       0.136000
     67 H30         -1.6330    -9.0720    -4.4790 ha         1 4MK       0.160000
     68 H35          2.7740    -8.0590    -5.7500 h1         1 4MK       0.102700
     69 H36          3.1560    -8.7840    -8.0450 hc         1 4MK       0.051700
     70 H36A         3.1670   -10.2060    -6.9910 hc         1 4MK       0.051700
     71 H36B         1.7440    -9.8490    -7.9800 hc         1 4MK       0.051700
     72 H37          0.7300    -6.8310    -6.0690 hc         1 4MK       0.051700
     73 H37A         0.0940    -8.0570    -7.1740 hc         1 4MK       0.051700
     74 H37B         1.4500    -7.0360    -7.6710 hc         1 4MK       0.051700
@<TRIPOS>BOND
     1     1     2 1   
     2     2     3 1   
     3     2     4 1   
     4     4     5 1   
     5     5     6 ar  
     6     5    17 ar  
     7     6     7 ar  
     8     7     8 1   
     9     7    14 ar  
    10     8     9 1   
    11     8    13 1   
    12     9    10 1   
    13    10    11 1   
    14    11    12 1   
    15    12    13 1   
    16    14    15 1   
    17    14    16 ar  
    18    16    17 ar  
    19    17    18 1   
    20    18    19 1   
    21    19    20 ar  
    22    19    38 ar  
    23    20    21 ar  
    24    21    22 ar  
    25    22    23 1   
    26    22    24 ar  
    27    24    25 1   
    28    24    38 ar  
    29    25    26 1   
    30    26    27 ar  
    31    26    31 ar  
    32    27    28 ar  
    33    28    29 ar  
    34    29    30 ar  
    35    30    31 ar  
    36    31    32 1   
    37    32    33 2   
    38    32    34 2   
    39    32    35 1   
    40    35    36 1   
    41    35    37 1   
    42     1    39 1   
    43     1    40 1   
    44     1    41 1   
    45     2    42 1   
    46     3    43 1   
    47     3    44 1   
    48     3    45 1   
    49     6    46 1   
    50     8    47 1   
    51     9    48 1   
    52     9    49 1   
    53    10    50 1   
    54    10    51 1   
    55    11    52 1   
    56    12    53 1   
    57    12    54 1   
    58    13    55 1   
    59    13    56 1   
    60    15    57 1   
    61    15    58 1   
    62    15    59 1   
    63    16    60 1   
    64    18    61 1   
    65    21    62 1   
    66    25    63 1   
    67    27    64 1   
    68    28    65 1   
    69    29    66 1   
    70    30    67 1   
    71    35    68 1   
    72    36    69 1   
    73    36    70 1   
    74    36    71 1   
    75    37    72 1   
    76    37    73 1   
    77    37    74 1   
@<TRIPOS>SUBSTRUCTURE
     1 4MK         1 TEMP              0 ****  ****    0 ROOT
