@<TRIPOS>MOLECULE
molecule
   18    18     1     0     0
SMALL
bcc


@<TRIPOS>ATOM
      1 CAF          0.0000     0.0000     0.0000 c2         1 4ML      -0.144200
      2 CAE          1.3310     0.0000     0.0000 ce         1 4ML      -0.280200
      3 CAJ          1.8210     0.0000     1.3810 c          1 4ML       0.701800
      4 OAC          2.9930     0.0000     1.7040 o          1 4ML      -0.614500
      5 OAH          0.7820     0.0010     2.2370 os         1 4ML      -0.324900
      6 CAK         -0.4390     0.0070     1.4460 c3         1 4ML       0.159000
      7 CAA         -1.2650    -1.2460     1.7420 c3         1 4ML      -0.067100
      8 CAG         -1.2580     1.2630     1.7510 c3         1 4ML      -0.186400
      9 CAI         -1.6460     1.2680     3.2070 c          1 4ML       0.894600
     10 OAD         -1.3050     0.3600     3.9260 o          1 4ML      -0.839800
     11 OAB         -2.3730     2.2820     3.7030 o          1 4ML      -0.839800
     12 HAF         -0.5420     0.5850    -0.7330 ha         1 4ML       0.161000
     13 HAE          1.8720    -0.5400    -0.7670 ha         1 4ML       0.149000
     14 HAA         -1.0770    -1.9920     0.9800 hc         1 4ML       0.047367
     15 HAAA        -2.3180    -0.9920     1.7460 hc         1 4ML       0.047367
     16 HAAB        -0.9860    -1.6420     2.7110 hc         1 4ML       0.047367
     17 HAG         -0.6640     2.1430     1.5320 hc         1 4ML       0.043700
     18 HAGA        -2.1510     1.2690     1.1380 hc         1 4ML       0.043700
@<TRIPOS>BOND
     1     2     1 2
     2     6     1 1
     3     1    12 1
     4     3     2 1
     5     2    13 1
     6     4     3 2
     7     3     5 1
     8     5     6 1
     9     6     8 1
    10     6     7 1
    11     7    14 1
    12     7    15 1
    13     7    16 1
    14     9     8 1
    15     8    17 1
    16     8    18 1
    17    10     9 1
    18     9    11 1
@<TRIPOS>SUBSTRUCTURE
     1 4ML         1 TEMP              0 ****  ****    0 ROOT
