@<TRIPOS>MOLECULE
4ML
   18    18     1     0     0
SMALL
bcc


@<TRIPOS>ATOM
      1 CAF        -0.4000   -0.2000    0.2780 c2        1 4ML     -0.065200
      2 CAE         0.7930   -0.1840   -0.3510 ce        1 4ML     -0.312200
      3 CAJ         1.8450    0.0610    0.6630 c         1 4ML      0.711800
      4 OAC         3.0710    0.1560    0.6040 o         1 4ML     -0.630500
      5 OAH         1.2660    0.2000    1.9100 os        1 4ML     -0.433900
      6 CAK        -0.2010    0.0370    1.7660 c3        1 4ML      0.176000
      7 CAA        -0.6110   -1.1680    2.5890 c3        1 4ML     -0.090100
      8 CAG        -0.8790    1.3100    2.2330 c3        1 4ML     -0.200400
      9 CAI        -2.4160    1.2650    2.0990 c         1 4ML      0.914600
     10 OAD        -2.9430    0.4620    1.2730 o         1 4ML     -0.842800
     11 OAB        -3.0730    2.0590    2.8260 o         1 4ML     -0.842800
     12 HAF        -1.4240   -0.3140   -0.0980 ha        1 4ML      0.213000
     13 HAE         1.0280   -0.3080   -1.4050 ha        1 4ML      0.155000
     14 HAA        -0.1070   -2.0910    2.2200 hc        1 4ML      0.050700
     15 HAAA       -1.7220   -1.2780    2.5060 hc        1 4ML      0.050700
     16 HAAB       -0.3310   -1.0070    3.6570 hc        1 4ML      0.050700
     17 HAG        -0.6150    1.4920    3.3050 hc        1 4ML      0.048200
     18 HAGA       -0.5050    2.1770    1.6340 hc        1 4ML      0.048200
@<TRIPOS>BOND
     1    1    2 2   
     2    1    6 1   
     3    1   12 1   
     4    2    3 1   
     5    2   13 1   
     6    3    4 2   
     7    3    5 1   
     8    5    6 1   
     9    6    7 1   
    10    6    8 1   
    11    7   14 1   
    12    7   15 1   
    13    7   16 1   
    14    8    9 1   
    15    8   17 1   
    16    8   18 1   
    17    9   10 1   
    18    9   11 1   
@<TRIPOS>SUBSTRUCTURE
     1 4ML         1 TEMP              0 ****  ****    0 ROOT
