@<TRIPOS>MOLECULE
molecule
   17    17     1     0     0
SMALL
bcc


@<TRIPOS>ATOM
      1 N1           0.0000     0.0000     0.0000 nv         1 4MN      -0.924200
      2 C5           1.3970     0.0000     0.0000 ca         1 4MN       0.200600
      3 C6           2.0930     0.0000     1.2020 ca         1 4MN      -0.207000
      4 C4           2.0930    -0.0050    -1.2020 ca         1 4MN      -0.207000
      5 C3           3.4740    -0.0040    -1.1990 ca         1 4MN      -0.080000
      6 C2           4.1640    -0.0000    -0.0000 ca         1 4MN      -0.143300
      7 C1           5.6710     0.0010    -0.0000 c3         1 4MN      -0.038800
      8 C7           3.4740    -0.0000     1.1990 ca         1 4MN      -0.080000
      9 H11N        -0.5000    -0.0020    -0.8670 hn         1 4MN       0.427800
     10 H12N        -0.5000     0.0010     0.8670 hn         1 4MN       0.427800
     11 H6           1.5530     0.0000     2.1410 ha         1 4MN       0.127000
     12 H4           1.5530    -0.0080    -2.1410 ha         1 4MN       0.127000
     13 H7           4.0170     0.0020     2.1360 ha         1 4MN       0.128000
     14 H3           4.0170    -0.0080    -2.1360 ha         1 4MN       0.128000
     15 H11C         6.0320    -0.2530    -0.9890 hc         1 4MN       0.037700
     16 H12C         6.0330    -0.7280     0.7150 hc         1 4MN       0.037700
     17 H13C         6.0320     0.9850     0.2740 hc         1 4MN       0.037700
@<TRIPOS>BOND
     1     1     2 1
     2     2     3 ar
     3     2     4 ar
     4     3     8 ar
     5     4     5 ar
     6     5     6 ar
     7     6     7 1
     8     6     8 ar
     9     1     9 1
    10     1    10 1
    11     3    11 1
    12     4    12 1
    13     8    13 1
    14     5    14 1
    15     7    15 1
    16     7    16 1
    17     7    17 1
@<TRIPOS>SUBSTRUCTURE
     1 4MN         1 TEMP              0 ****  ****    0 ROOT
