@<TRIPOS>MOLECULE
4MN
   17    17     1     0     0
SMALL
bcc


@<TRIPOS>ATOM
      1 N1           0.0000     0.0000     0.0000 nv         1 4MN      -0.451200
      2 C5           1.3970     0.0000     0.0000 ca         1 4MN       0.050600
      3 C6           2.0930     0.0000     1.2020 ca         1 4MN      -0.185500
      4 C4           2.0930    -0.0050    -1.2020 ca         1 4MN      -0.185500
      5 C3           3.4740    -0.0040    -1.1990 ca         1 4MN      -0.048500
      6 C2           4.1640    -0.0000    -0.0000 ca         1 4MN      -0.155300
      7 C1           5.6710     0.0010    -0.0000 c3         1 4MN       0.075200
      8 C7           3.4740    -0.0000     1.1990 ca         1 4MN      -0.048500
      9 H11N        -0.5000    -0.0020    -0.8670 hn         1 4MN       0.264800
     10 H12N        -0.5000     0.0010     0.8670 hn         1 4MN       0.264800
     11 H6           1.5530     0.0000     2.1410 ha         1 4MN       0.106000
     12 H4           1.5530    -0.0080    -2.1410 ha         1 4MN       0.106000
     13 H7           4.0170     0.0020     2.1360 ha         1 4MN       0.100000
     14 H3           4.0170    -0.0080    -2.1360 ha         1 4MN       0.100000
     15 H11C         6.0320    -0.2530    -0.9890 hc         1 4MN       0.002367
     16 H12C         6.0330    -0.7280     0.7150 hc         1 4MN       0.002367
     17 H13C         6.0320     0.9850     0.2740 hc         1 4MN       0.002367
@<TRIPOS>BOND
     1     1     2 1   
     2     1     9 1   
     3     1    10 1   
     4     2     3 ar  
     5     2     4 ar  
     6     3     8 ar  
     7     3    11 1   
     8     4     5 ar  
     9     4    12 1   
    10     5     6 ar  
    11     5    14 1   
    12     6     7 1   
    13     6     8 ar  
    14     7    15 1   
    15     7    16 1   
    16     7    17 1   
    17     8    13 1   
@<TRIPOS>SUBSTRUCTURE
     1 4MN         1 TEMP              0 ****  ****    0 ROOT
