@<TRIPOS>MOLECULE
4MP
   29    30     1     0     0
SMALL
bcc


@<TRIPOS>ATOM
      1 O1           0.0000     0.0000     0.0000 o          1 4MP      -0.585500
      2 O2           0.3120     0.1180     2.5610 o          1 4MP      -0.566100
      3 O3           5.0290    -0.5100     6.6890 os         1 4MP      -0.277900
      4 N1           1.9830     0.0000     1.1010 n          1 4MP      -0.141400
      5 C1           1.2120     0.0000     0.0000 c          1 4MP       0.621500
      6 C2           2.0790     0.0100    -1.2400 c3         1 4MP      -0.117400
      7 C3           3.4760     0.4250    -0.7260 c3         1 4MP      -0.031400
      8 C4           3.4080    -0.0100     0.7550 c3         1 4MP       0.019000
      9 C6           2.4340    -0.1320     3.5010 ca         1 4MP      -0.208600
     10 C7           2.0710     0.3530     4.7620 ca         1 4MP      -0.032000
     11 C8           2.9400     0.2240     5.8220 ca         1 4MP      -0.192500
     12 C9           4.1750    -0.3860     5.6410 ca         1 4MP       0.161100
     13 C10          4.5420    -0.8640     4.3880 ca         1 4MP      -0.192500
     14 C11          3.6780    -0.7440     3.3240 ca         1 4MP      -0.032000
     15 C12          6.1960    -1.1680     6.1950 c3         1 4MP       0.215700
     16 H21          2.1180    -0.9790    -1.6810 hc         1 4MP       0.046200
     17 H22          1.7080     0.7360    -1.9540 hc         1 4MP       0.046200
     18 H31          4.2560    -0.1140    -1.2500 hc         1 4MP       0.029700
     19 H32          3.6140     1.4970    -0.8070 hc         1 4MP       0.029700
     20 H41          3.8130    -1.0080     0.8700 h1         1 4MP       0.034700
     21 H42          3.9480     0.6940     1.3770 h1         1 4MP       0.034700
     22 H7           1.1080     0.8280     4.9040 ha         1 4MP       0.125500
     23 H8           2.6600     0.5990     6.7990 ha         1 4MP       0.129000
     24 H10          5.5070    -1.3390     4.2510 ha         1 4MP       0.129000
     25 H11          3.9650    -1.1170     2.3480 ha         1 4MP       0.125500
     26 H121         6.9090    -1.2930     7.0010 h1         1 4MP       0.004033
     27 H122         6.6420    -0.5720     5.4080 h1         1 4MP       0.004033
     28 H123         5.9230    -2.1400     5.8010 h1         1 4MP       0.004033
     29 C5           1.5060     0.0040     2.3620 c          1 4MP       0.616700
@<TRIPOS>BOND
     1     1     5 2   
     2     2    29 2   
     3     3    12 1   
     4     3    15 1   
     5     4     5 1   
     6     4     8 1   
     7     4    29 1   
     8     5     6 1   
     9     6     7 1   
    10     6    16 1   
    11     6    17 1   
    12     7     8 1   
    13     7    18 1   
    14     7    19 1   
    15     8    20 1   
    16     8    21 1   
    17     9    10 ar  
    18     9    14 ar  
    19     9    29 1   
    20    10    11 ar  
    21    10    22 1   
    22    11    12 ar  
    23    11    23 1   
    24    12    13 ar  
    25    13    14 ar  
    26    13    24 1   
    27    14    25 1   
    28    15    26 1   
    29    15    27 1   
    30    15    28 1   
@<TRIPOS>SUBSTRUCTURE
     1 4MP         1 TEMP              0 ****  ****    0 ROOT
