@<TRIPOS>MOLECULE
4MQ
   36    38     1     0     0
SMALL
bcc


@<TRIPOS>ATOM
      1 N1           0.0000     0.0000     0.0000 nb         1 4MQ      -0.618000
      2 C2           1.3120     0.0000     0.0000 ca         1 4MQ       0.636900
      3 C3          -0.6800    -0.0000     1.1550 ca         1 4MQ       0.400600
      4 N3           2.2220     0.0010     3.4560 nh         1 4MQ      -0.506300
      5 C4           0.0450    -0.0000     2.3720 ca         1 4MQ      -0.259600
      6 N4           4.2410     0.4370     5.5290 n3         1 4MQ      -0.533600
      7 C5          -0.6430    -0.0000     3.5900 ca         1 4MQ      -0.050000
      8 C6          -2.0080    -0.0010     3.5900 ca         1 4MQ      -0.112000
      9 C7          -2.7220    -0.0020     2.3960 ca         1 4MQ      -0.073000
     10 C8           1.4610    -0.0000     2.3070 ca         1 4MQ       0.549200
     11 C9           3.0890     1.2000     3.5160 c3         1 4MQ       0.148800
     12 C10          3.4780     1.5300     4.8850 c3         1 4MQ       0.144800
     13 C17         -2.0810    -0.0010     1.1930 ca         1 4MQ      -0.154300
     14 C12          3.0260    -1.1930     3.5430 c3         1 4MQ       0.149800
     15 N9           2.0320     0.0000     1.1100 nb         1 4MQ      -0.669000
     16 C13          5.0760     0.9510     6.6220 c3         1 4MQ       0.187100
     17 C15          3.3360    -0.5810     6.0040 c3         1 4MQ       0.147800
     18 C16          3.1430    -1.7250     4.9870 c3         1 4MQ      -0.015400
     19 H2           1.8290     0.0000    -0.9520 h5         1 4MQ      -0.002900
     20 H17         -2.6510    -0.0010     0.2720 ha         1 4MQ       0.121000
     21 H91C         2.5540     2.0400     3.0910 h1         1 4MQ       0.025700
     22 H92C         3.9840     1.0140     2.9330 h1         1 4MQ       0.025700
     23 H121         2.5780    -1.9610     2.9240 h1         1 4MQ       0.022700
     24 H122         4.0200    -0.9720     3.1720 h1         1 4MQ       0.022700
     25 H5          -0.0970    -0.0000     4.5250 ha         1 4MQ       0.124000
     26 H101         4.0920     2.4230     4.8690 h1         1 4MQ       0.015200
     27 H102         2.5840     1.7220     5.4660 h1         1 4MQ       0.015200
     28 H131         5.6470     0.1380     7.0540 h1         1 4MQ       0.000367
     29 H132         4.4440     1.3920     7.3830 h1         1 4MQ       0.000367
     30 H133         5.7540     1.7020     6.2360 h1         1 4MQ       0.000367
     31 H151         2.3730    -0.1260     6.2030 h1         1 4MQ       0.011200
     32 H152         3.7300    -0.9960     6.9240 h1         1 4MQ       0.011200
     33 H6          -2.5420    -0.0010     4.5320 ha         1 4MQ       0.105000
     34 H7          -3.8050    -0.0020     2.4230 ha         1 4MQ       0.104000
     35 H161         2.2390    -2.2680     5.2350 hc         1 4MQ       0.013700
     36 H162         3.9910    -2.3960     5.0470 hc         1 4MQ       0.013700
@<TRIPOS>BOND
     1     1     2 ar  
     2     1     3 ar  
     3     2    15 ar  
     4     2    19 1   
     5     3     5 ar  
     6     3    13 ar  
     7     4    10 1   
     8     4    11 1   
     9     4    14 1   
    10     5     7 ar  
    11     5    10 ar  
    12     6    12 1   
    13     6    16 1   
    14     6    17 1   
    15     7     8 ar  
    16     7    25 1   
    17     8     9 ar  
    18     8    33 1   
    19     9    13 ar  
    20     9    34 1   
    21    10    15 ar  
    22    11    12 1   
    23    11    21 1   
    24    11    22 1   
    25    12    26 1   
    26    12    27 1   
    27    13    20 1   
    28    14    18 1   
    29    14    23 1   
    30    14    24 1   
    31    16    28 1   
    32    16    29 1   
    33    16    30 1   
    34    17    18 1   
    35    17    31 1   
    36    17    32 1   
    37    18    35 1   
    38    18    36 1   
@<TRIPOS>SUBSTRUCTURE
     1 4MQ         1 TEMP              0 ****  ****    0 ROOT
