@<TRIPOS>MOLECULE
molecule
   36    38     1     0     0
SMALL
bcc


@<TRIPOS>ATOM
      1 N1           0.0000     0.0000     0.0000 nb         1 4MQ      -0.732000
      2 C2           1.3120     0.0000     0.0000 ca         1 4MQ       0.690900
      3 C3          -0.6800    -0.0000     1.1550 ca         1 4MQ       0.446600
      4 N3           2.2220     0.0010     3.4560 nh         1 4MQ      -0.723300
      5 C4           0.0450    -0.0000     2.3720 ca         1 4MQ      -0.266600
      6 N4           4.2410     0.4370     5.5290 n3         1 4MQ      -0.728600
      7 C5          -0.6430    -0.0000     3.5900 ca         1 4MQ      -0.073000
      8 C6          -2.0080    -0.0010     3.5900 ca         1 4MQ      -0.146000
      9 C7          -2.7220    -0.0020     2.3960 ca         1 4MQ      -0.099000
     10 C8           1.4610    -0.0000     2.3070 ca         1 4MQ       0.670200
     11 C9           3.0890     1.2000     3.5160 c3         1 4MQ       0.175800
     12 C10          3.4780     1.5300     4.8850 c3         1 4MQ       0.161800
     13 C17         -2.0810    -0.0010     1.1930 ca         1 4MQ      -0.181300
     14 C12          3.0260    -1.1930     3.5430 c3         1 4MQ       0.176800
     15 N9           2.0320     0.0000     1.1100 nb         1 4MQ      -0.789000
     16 C13          5.0760     0.9510     6.6220 c3         1 4MQ       0.155100
     17 C15          3.3360    -0.5810     6.0040 c3         1 4MQ       0.166800
     18 C16          3.1430    -1.7250     4.9870 c3         1 4MQ      -0.068400
     19 H2           1.8290     0.0000    -0.9520 h5         1 4MQ       0.056100
     20 H17         -2.6510    -0.0010     0.2720 ha         1 4MQ       0.152000
     21 H91C         2.5540     2.0400     3.0910 h1         1 4MQ       0.053200
     22 H92C         3.9840     1.0140     2.9330 h1         1 4MQ       0.053200
     23 H121         2.5780    -1.9610     2.9240 h1         1 4MQ       0.048700
     24 H122         4.0200    -0.9720     3.1720 h1         1 4MQ       0.048700
     25 H5          -0.0970    -0.0000     4.5250 ha         1 4MQ       0.153000
     26 H101         4.0920     2.4230     4.8690 h1         1 4MQ       0.040200
     27 H102         2.5840     1.7220     5.4660 h1         1 4MQ       0.040200
     28 H131         5.6470     0.1380     7.0540 h1         1 4MQ       0.031700
     29 H132         4.4440     1.3920     7.3830 h1         1 4MQ       0.031700
     30 H133         5.7540     1.7020     6.2360 h1         1 4MQ       0.031700
     31 H151         2.3730    -0.1260     6.2030 h1         1 4MQ       0.033700
     32 H152         3.7300    -0.9960     6.9240 h1         1 4MQ       0.033700
     33 H6          -2.5420    -0.0010     4.5320 ha         1 4MQ       0.133000
     34 H7          -3.8050    -0.0020     2.4230 ha         1 4MQ       0.134000
     35 H161         2.2390    -2.2680     5.2350 hc         1 4MQ       0.044700
     36 H162         3.9910    -2.3960     5.0470 hc         1 4MQ       0.044700
@<TRIPOS>BOND
     1     1     2 ar
     2     1     3 ar
     3     2    15 ar
     4     3     5 ar
     5     3    13 ar
     6     4    10 1
     7     4    11 1
     8     4    14 1
     9     5     7 ar
    10     5    10 ar
    11     6    12 1
    12     6    16 1
    13     6    17 1
    14     7     8 ar
    15     8     9 ar
    16     9    13 ar
    17    10    15 ar
    18    11    12 1
    19    14    18 1
    20    17    18 1
    21     2    19 1
    22    13    20 1
    23    11    21 1
    24    11    22 1
    25    14    23 1
    26    14    24 1
    27     7    25 1
    28    12    26 1
    29    12    27 1
    30    16    28 1
    31    16    29 1
    32    16    30 1
    33    17    31 1
    34    17    32 1
    35     8    33 1
    36     9    34 1
    37    18    35 1
    38    18    36 1
@<TRIPOS>SUBSTRUCTURE
     1 4MQ         1 TEMP              0 ****  ****    0 ROOT
