@<TRIPOS>MOLECULE
molecule
   56    60     1     0     0
SMALL
bcc


@<TRIPOS>ATOM
      1 CAA          0.0000     0.0000     0.0000 ca         1 4MR      -0.152500
      2 CAB          1.3950     0.0000     0.0000 ca         1 4MR      -0.109000
      3 CAC          2.0920     0.0000     1.2080 ca         1 4MR      -0.143000
      4 CAF          1.3930    -0.0010     2.4160 ca         1 4MR      -0.109000
      5 CAE         -0.0010    -0.0010     2.4160 ca         1 4MR      -0.152500
      6 CAD         -0.6740    -0.0000     1.2080 ca         1 4MR       0.111100
      7 OAG         -2.0590    -0.0000     1.2070 os         1 4MR      -0.258200
      8 CAJ         -2.6910    -0.8520     0.3530 ca         1 4MR       0.137100
      9 CAM         -3.7710    -0.4040    -0.4060 ca         1 4MR      -0.164000
     10 CAL         -4.4180    -1.2760    -1.2820 ca         1 4MR      -0.072000
     11 CAI         -2.2580    -2.1730     0.2380 ca         1 4MR      -0.164000
     12 CAH         -2.9050    -3.0450    -0.6360 ca         1 4MR      -0.072000
     13 CAK         -3.9800    -2.5910    -1.3910 ca         1 4MR      -0.121300
     14 CAY         -4.6760    -3.5300    -2.3330 c3         1 4MR       0.097500
     15 CAZ         -5.2360    -2.7290    -3.5060 c          1 4MR       0.708000
     16 OAS         -4.5230    -2.0060    -4.2060 o          1 4MR      -0.561000
     17 NBA         -6.5940    -2.8590    -3.7390 ns         1 4MR      -0.605500
     18 CBF         -7.5050    -3.6290    -3.0310 c          1 4MR       0.841500
     19 OBG         -8.7010    -3.6710    -3.3270 o          1 4MR      -0.606500
     20 NBE         -6.9790    -4.3470    -1.9690 ns         1 4MR      -0.605500
     21 CBD         -5.6640    -4.3840    -1.5410 c          1 4MR       0.708000
     22 OBH         -5.3130    -5.0650    -0.5750 o          1 4MR      -0.561000
     23 NAX         -3.7230    -4.4720    -2.9190 n3         1 4MR      -0.693600
     24 CAR         -4.4060    -5.3890    -3.8400 c3         1 4MR       0.128300
     25 CAQ         -3.4290    -6.4160    -4.4160 c3         1 4MR       0.230300
     26 CBC         -2.6580    -3.7530    -3.6280 c3         1 4MR       0.128300
     27 CBB         -1.6220    -4.7250    -4.1990 c3         1 4MR       0.230300
     28 NAW         -2.2750    -5.7440    -5.0270 nh         1 4MR      -0.779300
     29 CAV         -1.5270    -6.4520    -5.9740 ca         1 4MR       0.886900
     30 NAU         -2.1750    -7.3840    -6.7230 nb         1 4MR      -0.748500
     31 CAT         -1.4240    -8.0470    -7.6250 ca         1 4MR       0.468200
     32 CAN         -0.0750    -7.8260    -7.8100 ca         1 4MR      -0.418600
     33 CAO          0.4890    -6.8620    -7.0010 ca         1 4MR       0.468200
     34 NAP         -0.2020    -6.1600    -6.0780 nb         1 4MR      -0.748500
     35 HAA         -0.5480     0.0000    -0.9340 ha         1 4MR       0.147000
     36 HAB          1.9360     0.0000    -0.9380 ha         1 4MR       0.136500
     37 HAC          3.1750    -0.0000     1.2090 ha         1 4MR       0.135000
     38 HAF          1.9350    -0.0010     3.3540 ha         1 4MR       0.136500
     39 HAE         -0.5500    -0.0010     3.3500 ha         1 4MR       0.147000
     40 HAM         -4.1070     0.6220    -0.3170 ha         1 4MR       0.151000
     41 HAL         -5.2570    -0.9300    -1.8740 ha         1 4MR       0.151500
     42 HAI         -1.4190    -2.5220     0.8290 ha         1 4MR       0.151000
     43 HAH         -2.5700    -4.0710    -0.7270 ha         1 4MR       0.151500
     44 HNBA        -6.9620    -2.3350    -4.5080 hn         1 4MR       0.347000
     45 HNBE        -7.6270    -4.9050    -1.4490 hn         1 4MR       0.347000
     46 HAR1        -5.1910    -5.9090    -3.3050 h1         1 4MR       0.062200
     47 HAR2        -4.8380    -4.8180    -4.6520 h1         1 4MR       0.062200
     48 HAQ1        -3.0830    -7.0640    -3.6190 h1         1 4MR       0.064200
     49 HAQ2        -3.9360    -7.0070    -5.1690 h1         1 4MR       0.064200
     50 HBC1        -3.0950    -3.1850    -4.4410 h1         1 4MR       0.062200
     51 HBC2        -2.1670    -3.0770    -2.9390 h1         1 4MR       0.062200
     52 HBB1        -1.1020    -5.2110    -3.3820 h1         1 4MR       0.064200
     53 HBB2        -0.9120    -4.1750    -4.8040 h1         1 4MR       0.064200
     54 HAT         -1.9080    -8.7970    -8.2400 h4         1 4MR       0.020600
     55 HAN          0.5040    -8.3750    -8.5430 ha         1 4MR       0.154000
     56 HAO          1.5470    -6.6570    -7.1130 h4         1 4MR       0.020600
@<TRIPOS>BOND
     1     1     2 ar
     2     1     6 ar
     3     1    35 1
     4     2     3 ar
     5     2    36 1
     6     3     4 ar
     7     3    37 1
     8     4     5 ar
     9     4    38 1
    10     5     6 ar
    11     5    39 1
    12     6     7 1
    13     7     8 1
    14     8     9 ar
    15     8    11 ar
    16     9    10 ar
    17     9    40 1
    18    10    13 ar
    19    10    41 1
    20    11    12 ar
    21    11    42 1
    22    12    13 ar
    23    12    43 1
    24    13    14 1
    25    14    15 1
    26    14    21 1
    27    14    23 1
    28    15    17 1
    29    15    16 2
    30    17    18 1
    31    17    44 1
    32    18    19 2
    33    18    20 1
    34    20    21 1
    35    20    45 1
    36    21    22 2
    37    23    26 1
    38    23    24 1
    39    24    25 1
    40    24    46 1
    41    24    47 1
    42    25    28 1
    43    25    48 1
    44    25    49 1
    45    26    27 1
    46    26    50 1
    47    26    51 1
    48    27    28 1
    49    27    52 1
    50    27    53 1
    51    28    29 1
    52    29    34 ar
    53    29    30 ar
    54    30    31 ar
    55    31    32 ar
    56    31    54 1
    57    32    33 ar
    58    32    55 1
    59    33    34 ar
    60    33    56 1
@<TRIPOS>SUBSTRUCTURE
     1 4MR         1 TEMP              0 ****  ****    0 ROOT
