@<TRIPOS>MOLECULE
4MS
   62    65     1     0     0
SMALL
bcc


@<TRIPOS>ATOM
      1 C4           0.0000     0.0000     0.0000 ca         1 4MS      -0.046000
      2 C5           1.3820     0.0000     0.0000 ca         1 4MS      -0.124000
      3 C6          -0.0040     0.0010     2.3960 ca         1 4MS      -0.072000
      4 C7          -2.5400    -5.3900    -0.9880 ca         1 4MS      -0.188900
      5 C8          -0.6920     0.0010     1.1960 ca         1 4MS      -0.137300
      6 C10          2.0740     0.0000     1.2000 ca         1 4MS       0.118900
      7 C13         -3.6380    -4.5960    -0.4130 ce         1 4MS       0.674200
      8 C15         -3.5220    -3.5070     1.8580 c2         1 4MS       0.154900
      9 C17         -3.1060    -2.1480     2.3730 c3         1 4MS       0.038900
     10 C21         -4.8220    -9.6470    -5.5600 c3         1 4MS       0.013700
     11 C22         -2.1990     0.0010     1.1950 c3         1 4MS       0.113300
     12 C24         -4.2860    -1.4600     3.0610 c3         1 4MS      -0.070000
     13 C12          1.3790    -0.0010     2.3980 ca         1 4MS      -0.081600
     14 F34          3.4250    -0.0020     1.2010 f          1 4MS      -0.118900
     15 N26         -2.6880    -1.3800     1.1940 n          1 4MS      -0.143800
     16 C19         -3.8090    -0.1590     3.7110 c3         1 4MS      -0.007433
     17 C18         -5.3670    -1.1450     2.0240 c3         1 4MS      -0.007433
     18 C16         -2.8340    -2.1660     0.1130 c          1 4MS       0.657700
     19 O28         -2.5750    -1.8350    -1.0280 o          1 4MS      -0.664500
     20 C14         -3.3530    -3.4780     0.5070 ce         1 4MS      -0.337800
     21 C2          -1.1510    -5.2820    -0.8170 ca         1 4MS      -0.032000
     22 N25         -4.8600    -4.8950    -0.7280 nf         1 4MS      -0.478300
     23 S35         -4.7680    -6.1960    -1.7740 sy         1 4MS       1.073700
     24 O29         -5.1920    -5.7490    -3.0540 o          1 4MS      -0.569300
     25 O30         -5.3100    -7.3260    -1.1030 o          1 4MS      -0.569300
     26 C11         -3.0090    -6.3980    -1.8400 ca         1 4MS      -0.110500
     27 C9          -2.1640    -7.2550    -2.4840 ca         1 4MS       0.017700
     28 C3          -0.7940    -7.1370    -2.3000 ca         1 4MS      -0.065000
     29 C1          -0.3010    -6.1490    -1.4670 ca         1 4MS      -0.076000
     30 C23         -2.7160    -8.3250    -3.3910 c3         1 4MS       0.268100
     31 N27         -3.0510    -7.7390    -4.6910 n7         1 4MS      -0.599100
     32 S36         -3.3250    -8.7200    -5.9960 s6         1 4MS       0.959900
     33 O31         -2.1960    -9.5820    -6.0290 o          1 4MS      -0.586300
     34 O32         -3.5890    -7.8190    -7.0620 o          1 4MS      -0.586300
     35 H4          -0.5410     0.0000    -0.9380 ha         1 4MS       0.133000
     36 H5           1.9240     0.0000    -0.9380 ha         1 4MS       0.127000
     37 H6          -0.5480     0.0010     3.3330 ha         1 4MS       0.117000
     38 H17         -2.2750    -2.2510     3.0610 h1         1 4MS       0.046700
     39 H20         -5.4420    -1.8020     4.8390 hc         1 4MS       0.015922
     40 H20A        -5.4990    -3.1270     3.6680 hc         1 4MS       0.015922
     41 H20B        -4.0530    -2.8810     4.6560 hc         1 4MS       0.015922
     42 H21         -5.5930    -8.9570    -5.2390 h1         1 4MS       0.063700
     43 H21A        -5.1690   -10.2000    -6.4240 h1         1 4MS       0.063700
     44 H21B        -4.5970   -10.3370    -4.7560 h1         1 4MS       0.063700
     45 H22         -2.5590     0.5120     0.3100 h1         1 4MS       0.049700
     46 H22A        -2.5610     0.5120     2.0790 h1         1 4MS       0.049700
     47 H19         -4.3170    -0.0220     4.6580 hc         1 4MS       0.015922
     48 H19A        -2.7400    -0.2100     3.8790 hc         1 4MS       0.015922
     49 H19B        -4.0330     0.6750     3.0570 hc         1 4MS       0.015922
     50 H18         -6.2170    -0.6880     2.5160 hc         1 4MS       0.015922
     51 H18A        -4.9690    -0.4620     1.2830 hc         1 4MS       0.015922
     52 H18B        -5.6800    -2.0620     1.5390 hc         1 4MS       0.015922
     53 HO33        -3.2490    -5.0580     2.8890 ho         1 4MS       0.414000
     54 H2          -0.7450    -4.5140    -0.1690 ha         1 4MS       0.108000
     55 H3          -0.1150    -7.8130    -2.8050 ha         1 4MS       0.122000
     56 H1           0.7690    -6.0560    -1.3230 ha         1 4MS       0.111000
     57 H23         -3.6080    -8.7510    -2.9460 h1         1 4MS       0.024700
     58 H23A        -1.9740    -9.1030    -3.5260 h1         1 4MS       0.024700
     59 HN27        -3.0920    -6.7440    -4.7960 hn         1 4MS       0.371800
     60 Cl37         2.2450     0.0020     3.9030 cl         1 4MS       0.007600
     61 O33         -3.9780    -4.5390     2.5900 oh         1 4MS      -0.454100
     62 C20         -4.8620    -2.3850     4.1340 c3         1 4MS      -0.007433
@<TRIPOS>BOND
     1     1     2 ar  
     2     1     5 ar  
     3     1    35 1   
     4     2     6 ar  
     5     2    36 1   
     6     3     5 ar  
     7     3    13 ar  
     8     3    37 1   
     9     4     7 1   
    10     4    21 ar  
    11     4    26 ar  
    12     5    11 1   
    13     6    13 ar  
    14     6    14 1   
    15     7    20 1   
    16     7    22 2   
    17     8     9 1   
    18     8    20 2   
    19     8    61 1   
    20     9    12 1   
    21     9    15 1   
    22     9    38 1   
    23    10    32 1   
    24    10    42 1   
    25    10    43 1   
    26    10    44 1   
    27    11    15 1   
    28    11    45 1   
    29    11    46 1   
    30    12    16 1   
    31    12    17 1   
    32    12    62 1   
    33    13    60 1   
    34    15    18 1   
    35    16    47 1   
    36    16    48 1   
    37    16    49 1   
    38    17    50 1   
    39    17    51 1   
    40    17    52 1   
    41    18    19 2   
    42    18    20 1   
    43    21    29 ar  
    44    21    54 1   
    45    22    23 1   
    46    23    24 2   
    47    23    25 2   
    48    23    26 1   
    49    26    27 ar  
    50    27    28 ar  
    51    27    30 1   
    52    28    29 ar  
    53    28    55 1   
    54    29    56 1   
    55    30    31 1   
    56    30    57 1   
    57    30    58 1   
    58    31    32 1   
    59    31    59 1   
    60    32    33 2   
    61    32    34 2   
    62    39    62 1   
    63    40    62 1   
    64    41    62 1   
    65    53    61 1   
@<TRIPOS>SUBSTRUCTURE
     1 4MS         1 TEMP              0 ****  ****    0 ROOT
