@<TRIPOS>MOLECULE
molecule
   62    65     1     0     0
SMALL
bcc


@<TRIPOS>ATOM
      1 C4           0.0000     0.0000     0.0000 ca         1 4MS      -0.075000
      2 C5           1.3820     0.0000     0.0000 ca         1 4MS      -0.162000
      3 C6          -0.0040     0.0010     2.3960 ca         1 4MS      -0.091000
      4 C7          -2.5400    -5.3900    -0.9880 ca         1 4MS      -0.198900
      5 C8          -0.6920     0.0010     1.1960 ca         1 4MS      -0.132300
      6 C10          2.0740     0.0000     1.2000 ca         1 4MS       0.148900
      7 C13         -3.6380    -4.5960    -0.4130 ce         1 4MS       0.658200
      8 C15         -3.5220    -3.5070     1.8580 c2         1 4MS       0.143900
      9 C17         -3.1060    -2.1480     2.3730 c3         1 4MS       0.115900
     10 C21         -4.8220    -9.6470    -5.5600 c3         1 4MS      -0.247300
     11 C22         -2.1990     0.0010     1.1950 c3         1 4MS       0.173300
     12 C24         -4.2860    -1.4600     3.0610 c3         1 4MS      -0.071000
     13 C12          1.3790    -0.0010     2.3980 ca         1 4MS      -0.021600
     14 F34          3.4250    -0.0020     1.2010 f          1 4MS      -0.123900
     15 N26         -2.6880    -1.3800     1.1940 n          1 4MS      -0.480800
     16 C19         -3.8090    -0.1590     3.7110 c3         1 4MS      -0.088100
     17 C18         -5.3670    -1.1450     2.0240 c3         1 4MS      -0.088100
     18 C16         -2.8340    -2.1660     0.1130 c          1 4MS       0.719700
     19 O28         -2.5750    -1.8350    -1.0280 o          1 4MS      -0.616500
     20 C14         -3.3530    -3.4780     0.5070 ce         1 4MS      -0.300800
     21 C2          -1.1510    -5.2820    -0.8170 ca         1 4MS      -0.053000
     22 N25         -4.8600    -4.8950    -0.7280 nf         1 4MS      -0.597300
     23 S35         -4.7680    -6.1960    -1.7740 sy         1 4MS       1.354700
     24 O29         -5.1920    -5.7490    -3.0540 o          1 4MS      -0.602800
     25 O30         -5.3100    -7.3260    -1.1030 o          1 4MS      -0.602800
     26 C11         -3.0090    -6.3980    -1.8400 ca         1 4MS      -0.243500
     27 C9          -2.1640    -7.2550    -2.4840 ca         1 4MS       0.022700
     28 C3          -0.7940    -7.1370    -2.3000 ca         1 4MS      -0.088000
     29 C1          -0.3010    -6.1490    -1.4670 ca         1 4MS      -0.103000
     30 C23         -2.7160    -8.3250    -3.3910 c3         1 4MS       0.267100
     31 N27         -3.0510    -7.7390    -4.6910 n7         1 4MS      -0.913100
     32 S36         -3.3250    -8.7200    -5.9960 s6         1 4MS       1.327900
     33 O31         -2.1960    -9.5820    -6.0290 o          1 4MS      -0.627800
     34 O32         -3.5890    -7.8190    -7.0620 o          1 4MS      -0.627800
     35 H4          -0.5410     0.0000    -0.9380 ha         1 4MS       0.163000
     36 H5           1.9240     0.0000    -0.9380 ha         1 4MS       0.157000
     37 H6          -0.5480     0.0010     3.3330 ha         1 4MS       0.146000
     38 H17         -2.2750    -2.2510     3.0610 h1         1 4MS       0.075700
     39 H20         -5.4420    -1.8020     4.8390 hc         1 4MS       0.044367
     40 H20A        -5.4990    -3.1270     3.6680 hc         1 4MS       0.044367
     41 H20B        -4.0530    -2.8810     4.6560 hc         1 4MS       0.044367
     42 H21         -5.5930    -8.9570    -5.2390 h1         1 4MS       0.100033
     43 H21A        -5.1690   -10.2000    -6.4240 h1         1 4MS       0.100033
     44 H21B        -4.5970   -10.3370    -4.7560 h1         1 4MS       0.100033
     45 H22         -2.5590     0.5120     0.3100 h1         1 4MS       0.078200
     46 H22A        -2.5610     0.5120     2.0790 h1         1 4MS       0.078200
     47 H19         -4.3170    -0.0220     4.6580 hc         1 4MS       0.044367
     48 H19A        -2.7400    -0.2100     3.8790 hc         1 4MS       0.044367
     49 H19B        -4.0330     0.6750     3.0570 hc         1 4MS       0.044367
     50 H18         -6.2170    -0.6880     2.5160 hc         1 4MS       0.044367
     51 H18A        -4.9690    -0.4620     1.2830 hc         1 4MS       0.044367
     52 H18B        -5.6800    -2.0620     1.5390 hc         1 4MS       0.044367
     53 HO33        -3.2490    -5.0580     2.8890 ho         1 4MS       0.438000
     54 H2          -0.7450    -4.5140    -0.1690 ha         1 4MS       0.143000
     55 H3          -0.1150    -7.8130    -2.8050 ha         1 4MS       0.154000
     56 H1           0.7690    -6.0560    -1.3230 ha         1 4MS       0.146000
     57 H23         -3.6080    -8.7510    -2.9460 h1         1 4MS       0.060700
     58 H23A        -1.9740    -9.1030    -3.5260 h1         1 4MS       0.060700
     59 HN27        -3.0920    -6.7440    -4.7960 hn         1 4MS       0.472800
     60 Cl37         2.2450     0.0020     3.9030 cl         1 4MS      -0.084400
     61 O33         -3.9780    -4.5390     2.5900 oh         1 4MS      -0.477100
     62 C20         -4.8620    -2.3850     4.1340 c3         1 4MS      -0.088100
@<TRIPOS>BOND
     1     1     2 ar  
     2     1     5 ar  
     3     2     6 ar  
     4     3     5 ar  
     5     3    13 ar  
     6     4     7 1   
     7     4    21 ar  
     8     4    26 ar  
     9     5    11 1   
    10     6    13 ar  
    11     6    14 1   
    12     7    20 1   
    13     7    22 2   
    14     8     9 1   
    15     8    61 1   
    16     8    20 2   
    17     9    12 1   
    18     9    15 1   
    19    62    12 1   
    20    10    32 1   
    21    11    15 1   
    22    12    16 1   
    23    12    17 1   
    24    60    13 1   
    25    15    18 1   
    26    18    19 2   
    27    18    20 1   
    28    21    29 ar  
    29    22    23 1   
    30    23    24 2   
    31    23    25 2   
    32    23    26 1   
    33    26    27 ar  
    34    27    28 ar  
    35    27    30 1   
    36    28    29 ar  
    37    30    31 1   
    38    31    32 1   
    39    32    33 2   
    40    32    34 2   
    41     1    35 1   
    42     2    36 1   
    43     3    37 1   
    44     9    38 1   
    45    62    39 1   
    46    62    40 1   
    47    62    41 1   
    48    10    42 1   
    49    10    43 1   
    50    10    44 1   
    51    11    45 1   
    52    11    46 1   
    53    16    47 1   
    54    16    48 1   
    55    16    49 1   
    56    17    50 1   
    57    17    51 1   
    58    17    52 1   
    59    61    53 1   
    60    21    54 1   
    61    28    55 1   
    62    29    56 1   
    63    30    57 1   
    64    30    58 1   
    65    31    59 1   
@<TRIPOS>SUBSTRUCTURE
     1 4MS         1 TEMP              0 ****  ****    0 ROOT
