@<TRIPOS>MOLECULE
4MT
   23    23     1     0     0
SMALL
bcc


@<TRIPOS>ATOM
      1 O1           0.0000     0.0000     0.0000 oh         1 4MT      -0.499100
      2 C2           1.3590     0.0000     0.0000 ca         1 4MT       0.129100
      3 C3           2.0540     0.0000     1.2010 ca         1 4MT      -0.133000
      4 C4           3.4350    -0.0010     1.1980 ca         1 4MT      -0.072000
      5 C5           4.1250    -0.0010     0.0000 ca         1 4MT      -0.114300
      6 C6           5.6320    -0.0020     0.0000 c3         1 4MT       0.024900
      7 C7           6.1420    -1.4450    -0.0000 c3         1 4MT      -0.002000
      8 N8           7.6070    -1.4450    -0.0000 ns         1 4MT      -0.020900
      9 C9           8.2800    -2.6130     0.0010 cs         1 4MT       0.254200
     10 S10          7.4800    -3.9980     0.0010 s          1 4MT      -0.553400
     11 C11          3.4350    -0.0020    -1.1980 ca         1 4MT      -0.072000
     12 C12          2.0530    -0.0070    -1.2020 ca         1 4MT      -0.133000
     13 H1          -0.3140     0.8890    -0.0010 ho         1 4MT       0.403000
     14 H2           1.5140     0.0000     2.1400 ha         1 4MT       0.116000
     15 H3           3.9780    -0.0010     2.1350 ha         1 4MT       0.106000
     16 H4           5.9930     0.5080     0.8850 hc         1 4MT       0.018700
     17 H5           5.9930     0.5090    -0.8840 hc         1 4MT       0.018700
     18 H6           5.7800    -1.9550    -0.8850 h1         1 4MT       0.058200
     19 H7           5.7800    -1.9560     0.8840 h1         1 4MT       0.058200
     20 H8           9.3640    -2.6140     0.0080 h5         1 4MT       0.031200
     21 H10          3.9780    -0.0040    -2.1360 ha         1 4MT       0.106000
     22 H11          1.5130    -0.0070    -2.1400 ha         1 4MT       0.116000
     23 H12          8.1070    -0.5790    -0.0270 hn         1 4MT       0.159500
@<TRIPOS>BOND
     1     1     2 1   
     2     1    13 1   
     3     2     3 ar  
     4     2    12 ar  
     5     3     4 ar  
     6     3    14 1   
     7     4     5 ar  
     8     4    15 1   
     9     5     6 1   
    10     5    11 ar  
    11     6     7 1   
    12     6    16 1   
    13     6    17 1   
    14     7     8 1   
    15     7    18 1   
    16     7    19 1   
    17     8     9 1   
    18     8    23 1   
    19     9    10 2   
    20     9    20 1   
    21    11    12 ar  
    22    11    21 1   
    23    12    22 1   
@<TRIPOS>SUBSTRUCTURE
     1 4MT         1 TEMP              0 ****  ****    0 ROOT
