@<TRIPOS>MOLECULE
molecule
   23    23     1     0     0
SMALL
bcc


@<TRIPOS>ATOM
      1 O1           0.0000     0.0000     0.0000 oh         1 4MT      -0.520100
      2 C2           1.3590     0.0000     0.0000 ca         1 4MT       0.108100
      3 C3           2.0540     0.0000     1.2010 ca         1 4MT      -0.148500
      4 C4           3.4350    -0.0010     1.1980 ca         1 4MT      -0.107500
      5 C5           4.1250    -0.0010     0.0000 ca         1 4MT      -0.097300
      6 C6           5.6320    -0.0020     0.0000 c3         1 4MT      -0.053100
      7 C7           6.1420    -1.4450    -0.0000 c3         1 4MT       0.096000
      8 N8           7.6070    -1.4450    -0.0000 ns         1 4MT      -0.492900
      9 C9           8.2800    -2.6130     0.0010 cs         1 4MT       0.392200
     10 S10          7.4800    -3.9980     0.0010 s          1 4MT      -0.521400
     11 C11          3.4350    -0.0020    -1.1980 ca         1 4MT      -0.107500
     12 C12          2.0530    -0.0070    -1.2020 ca         1 4MT      -0.148500
     13 H1          -0.3140     0.8890    -0.0010 ho         1 4MT       0.420000
     14 H2           1.5140     0.0000     2.1400 ha         1 4MT       0.143000
     15 H3           3.9780    -0.0010     2.1350 ha         1 4MT       0.134500
     16 H4           5.9930     0.5080     0.8850 hc         1 4MT       0.051200
     17 H5           5.9930     0.5090    -0.8840 hc         1 4MT       0.051200
     18 H6           5.7800    -1.9550    -0.8850 h1         1 4MT       0.077200
     19 H7           5.7800    -1.9560     0.8840 h1         1 4MT       0.077200
     20 H8           9.3640    -2.6140     0.0080 h5         1 4MT       0.056200
     21 H10          3.9780    -0.0040    -2.1360 ha         1 4MT       0.134500
     22 H11          1.5130    -0.0070    -2.1400 ha         1 4MT       0.143000
     23 H12          8.1070    -0.5790    -0.0270 hn         1 4MT       0.311500
@<TRIPOS>BOND
     1    10     9 2   
     2     7     8 1   
     3     7     6 1   
     4     9     8 1   
     5     6     5 1   
     6     5     4 ar  
     7     5    11 ar  
     8     4     3 ar  
     9    11    12 ar  
    10     3     2 ar  
    11    12     2 ar  
    12     2     1 1   
    13     1    13 1   
    14     3    14 1   
    15     4    15 1   
    16     6    16 1   
    17     6    17 1   
    18     7    18 1   
    19     7    19 1   
    20     9    20 1   
    21    11    21 1   
    22    12    22 1   
    23     8    23 1   
@<TRIPOS>SUBSTRUCTURE
     1 4MT         1 TEMP              0 ****  ****    0 ROOT
