@<TRIPOS>MOLECULE
molecule
   21    22     1     0     0
SMALL
bcc


@<TRIPOS>ATOM
      1 C5           0.0000     0.0000     0.0000 ca         1 4MU      -0.061000
      2 C6           1.3650     0.0000     0.0000 ca         1 4MU      -0.180000
      3 C7           2.0710     0.0000     1.2020 ca         1 4MU       0.155100
      4 C2          -2.0050     0.0030     3.6350 c          1 4MU       0.740800
      5 C3          -2.7760     0.0010     2.4550 cc         1 4MU      -0.279200
      6 C4          -2.1600     0.0000     1.2440 cd         1 4MU       0.024600
      7 O2          -2.5710     0.0020     4.7130 o          1 4MU      -0.576500
      8 O1          -0.6630     0.0030     3.6000 os         1 4MU      -0.307200
      9 CM4         -2.9600     0.0010    -0.0320 c3         1 4MU      -0.060900
     10 C4A         -0.6960     0.0010     1.2140 ca         1 4MU      -0.165800
     11 C8A          0.0120     0.0020     2.4300 ca         1 4MU       0.182100
     12 C8           1.3990     0.0010     2.4130 ca         1 4MU      -0.178000
     13 O1'          3.4280    -0.0000     1.1860 oh         1 4MU      -0.516100
     14 H5          -0.5430     0.0000    -0.9370 ha         1 4MU       0.143000
     15 H6           1.9030    -0.0010    -0.9400 ha         1 4MU       0.148000
     16 H3          -3.8550    -0.0780     2.5130 ha         1 4MU       0.171000
     17 HM4         -2.7260    -0.8880    -0.6050 hc         1 4MU       0.056033
     18 HM4A        -2.7120     0.8810    -0.6130 hc         1 4MU       0.056033
     19 HM4B        -4.0170     0.0100     0.2050 hc         1 4MU       0.056033
     20 H8           1.9540     0.0010     3.3430 ha         1 4MU       0.165000
     21 HO1'         3.7430    -0.8880     1.2260 ho         1 4MU       0.428000
@<TRIPOS>BOND
     1     1     2 ar
     2     1    10 ar
     3     2     3 ar
     4     3    12 ar
     5     3    13 1
     6     4     5 1
     7     4     7 2
     8     4     8 1
     9     5     6 2
    10     6     9 1
    11     6    10 1
    12     8    11 1
    13    10    11 ar
    14    11    12 ar
    15     1    14 1
    16     2    15 1
    17     5    16 1
    18     9    17 1
    19     9    18 1
    20     9    19 1
    21    12    20 1
    22    13    21 1
@<TRIPOS>SUBSTRUCTURE
     1 4MU         1 TEMP              0 ****  ****    0 ROOT
