@<TRIPOS>MOLECULE
4MU
   21    22     1     0     0
SMALL
bcc


@<TRIPOS>ATOM
      1 C5         -0.0330   -0.0300   -0.0700 ca        1 4MU     -0.043000
      2 C6          1.3490   -0.0740   -0.0950 ca        1 4MU     -0.184000
      3 C7          2.0620   -0.1230    1.1240 ca        1 4MU      0.175100
      4 C2         -1.9930   -0.0510    3.6650 c         1 4MU      0.724800
      5 C3         -2.7770    0.0010    2.4450 cc        1 4MU     -0.273200
      6 C4         -2.1860    0.0090    1.2250 cd        1 4MU      0.058600
      7 O2         -2.3660   -0.0650    4.8370 o         1 4MU     -0.566500
      8 O1         -0.5970   -0.0940    3.5900 os        1 4MU     -0.327200
      9 CM4        -2.9820    0.0620   -0.0220 c3        1 4MU     -0.074900
     10 C4A        -0.7410   -0.0350    1.1470 ca        1 4MU     -0.186800
     11 C8A        -0.0040   -0.0850    2.3490 ca        1 4MU      0.195100
     12 C8          1.4010   -0.1300    2.3520 ca        1 4MU     -0.246000
     13 O1'         3.4290   -0.1640    1.0220 oh        1 4MU     -0.488100
     14 H5         -0.5930    0.0080   -1.0180 ha        1 4MU      0.142000
     15 H6          1.9060   -0.0700   -1.0420 ha        1 4MU      0.159000
     16 H3         -3.8680    0.0320    2.5810 ha        1 4MU      0.169000
     17 HM4        -4.0780    0.0910    0.1970 hc        1 4MU      0.059033
     18 HM4A       -2.7710   -0.8400   -0.6510 hc        1 4MU      0.059033
     19 HM4B       -2.7140    0.9750   -0.6110 hc        1 4MU      0.059033
     20 H8          1.9440   -0.1680    3.3070 ha        1 4MU      0.163000
     21 HO1'        3.8000   -0.1960    1.9170 ho        1 4MU      0.429000
@<TRIPOS>BOND
     1    1    2 ar  
     2    1   10 ar  
     3    1   14 1   
     4    2    3 ar  
     5    2   15 1   
     6    3   12 ar  
     7    3   13 1   
     8    4    5 1   
     9    4    7 2   
    10    4    8 1   
    11    5    6 2   
    12    5   16 1   
    13    6    9 1   
    14    6   10 1   
    15    8   11 1   
    16    9   17 1   
    17    9   18 1   
    18    9   19 1   
    19   10   11 ar  
    20   11   12 ar  
    21   12   20 1   
    22   13   21 1   
@<TRIPOS>SUBSTRUCTURE
     1 4MU         1 TEMP              0 ****  ****    0 ROOT
