@<TRIPOS>MOLECULE
4MV
   19    18     1     0     0
SMALL
bcc


@<TRIPOS>ATOM
      1 CA         -0.0170   -0.1160   -0.0240 c3        1 4MV     -0.194400
      2 CB          1.4530    0.2220    0.0160 c3        1 4MV     -0.062400
      3 CG          2.0560    0.0970    1.4090 c3        1 4MV     -0.072700
      4 CD1         3.5690    0.1110    1.3310 c3        1 4MV     -0.083600
      5 CD2         1.5710    1.2020    2.3230 c3        1 4MV     -0.083600
      6 C          -0.5250   -0.2310   -1.4730 c         1 4MV      0.907600
      7 O           0.1650   -0.8870   -2.3060 o         1 4MV     -0.853800
      8 OXT        -1.6260    0.3240   -1.7550 o         1 4MV     -0.853800
      9 HA1        -0.6150    0.6620    0.5130 hc        1 4MV      0.018700
     10 HA2        -0.2000   -1.0990    0.4790 hc        1 4MV      0.018700
     11 HB1         1.9910   -0.4710   -0.6870 hc        1 4MV      0.044700
     12 HB2         1.6090    1.2650   -0.3630 hc        1 4MV      0.044700
     13 HG          1.7340   -0.8900    1.8460 hc        1 4MV      0.037700
     14 HD11        3.9270    1.0630    0.8700 hc        1 4MV      0.021700
     15 HD12        3.9330   -0.7400    0.7070 hc        1 4MV      0.021700
     16 HD13        4.0170    0.0220    2.3510 hc        1 4MV      0.021700
     17 HD21        0.4560    1.1810    2.3910 hc        1 4MV      0.021700
     18 HD22        1.9960    1.0810    3.3480 hc        1 4MV      0.021700
     19 HD23        1.8800    2.2000    1.9280 hc        1 4MV      0.021700
@<TRIPOS>BOND
     1    1    2 1   
     2    1    6 1   
     3    1    9 1   
     4    1   10 1   
     5    2    3 1   
     6    2   11 1   
     7    2   12 1   
     8    3    4 1   
     9    3    5 1   
    10    3   13 1   
    11    4   14 1   
    12    4   15 1   
    13    4   16 1   
    14    5   17 1   
    15    5   18 1   
    16    5   19 1   
    17    6    7 1   
    18    6    8 1   
@<TRIPOS>SUBSTRUCTURE
     1 4MV         1 TEMP              0 ****  ****    0 ROOT
