@<TRIPOS>MOLECULE
molecule
   19    18     1     0     0
SMALL
bcc


@<TRIPOS>ATOM
      1 CA           0.0000     0.0000     0.0000 c3         1 4MV      -0.185400
      2 CB           1.5280     0.0000     0.0000 c3         1 4MV      -0.057400
      3 CG           2.0390     0.0000     1.4420 c3         1 4MV      -0.084700
      4 CD1          3.5690     0.0010     1.4420 c3         1 4MV      -0.084100
      5 CD2          1.5290     1.2480     2.1640 c3         1 4MV      -0.084100
      6 C           -0.5030    -0.0000    -1.4200 c          1 4MV       0.890600
      7 O            0.2820    -0.0010    -2.3380 o          1 4MV      -0.858800
      8 OXT         -1.8220     0.0000    -1.6660 o          1 4MV      -0.858800
      9 HA1         -0.3610     0.8850     0.5110 hc         1 4MV       0.027700
     10 HA2         -0.3610    -0.8840     0.5110 hc         1 4MV       0.027700
     11 HB1          1.8890    -0.8840    -0.5110 hc         1 4MV       0.045200
     12 HB2          1.8890     0.8840    -0.5110 hc         1 4MV       0.045200
     13 HG           1.6790    -0.8850     1.9530 hc         1 4MV       0.036700
     14 HD11         3.9300     0.9090     0.9740 hc         1 4MV       0.023367
     15 HD12         3.9300    -0.0480     2.4620 hc         1 4MV       0.023367
     16 HD13         3.9300    -0.8580     0.8900 hc         1 4MV       0.023367
     17 HD21         2.1880     1.4820     2.9910 hc         1 4MV       0.023367
     18 HD22         1.5090     2.0820     1.4720 hc         1 4MV       0.023367
     19 HD23         0.5290     1.0660     2.5380 hc         1 4MV       0.023367
@<TRIPOS>BOND
     1     1     2 1
     2     1     6 1
     3     1     9 1
     4     1    10 1
     5     2     3 1
     6     2    11 1
     7     2    12 1
     8     3     4 1
     9     3     5 1
    10     3    13 1
    11     4    14 1
    12     4    15 1
    13     4    16 1
    14     5    17 1
    15     5    18 1
    16     5    19 1
    17     6     7 1
    18     6     8 1
@<TRIPOS>SUBSTRUCTURE
     1 4MV         1 TEMP              0 ****  ****    0 ROOT
