@<TRIPOS>MOLECULE
molecule
   31    31     1     0     0
SMALL
bcc


@<TRIPOS>ATOM
      1 C1           0.0000     0.0000     0.0000 c3         1 4MX      -0.083400
      2 O1           4.7770    -3.1640     2.2190 o          1 4MX      -0.831300
      3 O2           4.8070    -2.3640     5.5630 oh         1 4MX      -0.497100
      4 C2           1.5290     0.0000     0.0000 c3         1 4MX      -0.079400
      5 C3           2.0400     0.0000     1.4420 c3         1 4MX      -0.082400
      6 C4           3.5700    -0.0000     1.4430 c3         1 4MX      -0.030100
      7 C5           4.0720     0.0010     2.8630 ca         1 4MX      -0.046300
      8 C6           4.3980     1.1870     3.4780 ca         1 4MX      -0.175000
      9 C7           4.8630     1.1920     4.7900 ca         1 4MX       0.075100
     10 C8           5.0000     0.0010     5.4880 ca         1 4MX      -0.221000
     11 C9           4.6740    -1.1990     4.8820 ca         1 4MX       0.130100
     12 C10          4.2000    -1.2060     3.5600 ca         1 4MX      -0.084600
     13 C11          3.8450    -2.4770     2.9090 c          1 4MX       0.892200
     14 O            2.7110    -2.9070     2.9940 o          1 4MX      -0.831300
     15 O3           5.1850     2.3670     5.3870 oh         1 4MX      -0.536100
     16 C           -0.5100     0.0000    -1.4430 c3         1 4MX      -0.092100
     17 H1          -0.3610     0.8840     0.5110 hc         1 4MX       0.040200
     18 H2          -0.3610    -0.8850     0.5110 hc         1 4MX       0.040200
     19 H4           5.7100    -2.4830     5.8100 ho         1 4MX       0.405000
     20 H5           1.8910    -0.8840    -0.5110 hc         1 4MX       0.036200
     21 H6           1.8910     0.8840    -0.5110 hc         1 4MX       0.036200
     22 H7           1.6780     0.8840     1.9530 hc         1 4MX       0.055700
     23 H8           1.6780    -0.8840     1.9530 hc         1 4MX       0.055700
     24 H9           3.9310    -0.8850     0.9320 hc         1 4MX       0.054200
     25 H10          3.9310     0.8840     0.9320 hc         1 4MX       0.054200
     26 H11          4.2950     2.1200     2.9390 ha         1 4MX       0.119000
     27 H12          5.3620     0.0110     6.5090 ha         1 4MX       0.120000
     28 H13          4.4250     2.7170     5.8220 ho         1 4MX       0.400000
     29 H14         -0.1480     0.8840    -1.9540 hc         1 4MX       0.024700
     30 H15         -1.5930     0.0010    -1.4440 hc         1 4MX       0.024700
     31 H16         -0.1490    -0.8850    -1.9540 hc         1 4MX       0.024700
@<TRIPOS>BOND
     1    14    13 1   
     2     3    11 1   
     3    13    12 1   
     4    13     2 1   
     5    11    10 ar  
     6    11    12 ar  
     7    10     9 ar  
     8    12     7 ar  
     9     9    15 1   
    10     9     8 ar  
    11     7     8 ar  
    12     7     6 1   
    13     6     5 1   
    14     5     4 1   
    15     4     1 1   
    16     1    16 1   
    17     1    17 1   
    18     1    18 1   
    19     3    19 1   
    20     4    20 1   
    21     4    21 1   
    22     5    22 1   
    23     5    23 1   
    24     6    24 1   
    25     6    25 1   
    26     8    26 1   
    27    10    27 1   
    28    15    28 1   
    29    16    29 1   
    30    16    30 1   
    31    16    31 1   
@<TRIPOS>SUBSTRUCTURE
     1 4MX         1 TEMP              0 ****  ****    0 ROOT
