@<TRIPOS>MOLECULE
molecule
   36    36     1     0     0
SMALL
bcc


@<TRIPOS>ATOM
      1 C1           0.0000     0.0000     0.0000 c3         1 4MY       0.104600
      2 C2           1.5300     0.0000     0.0000 c3         1 4MY       0.104600
      3 C3           2.0400     0.0000     1.4420 c3         1 4MY       0.211100
      4 C4           1.5310    -1.2490     2.1640 c3         1 4MY       0.219600
      5 C5           0.0010    -1.2480     2.1640 c3         1 4MY       0.219600
      6 C6          -0.5100    -1.2490     0.7210 c3         1 4MY       0.211100
      7 O11         -0.4770    -0.0010    -1.3470 oh         1 4MY      -0.571800
      8 O12          2.0060    -1.1670    -0.6740 oh         1 4MY      -0.571800
      9 O13          3.4700    -0.0000     1.4420 os         1 4MY      -0.567200
     10 O14          2.0070    -1.2490     3.5110 os         1 4MY      -0.513200
     11 O15         -0.4760    -2.4150     2.8380 os         1 4MY      -0.513200
     12 O16         -1.9390    -1.2490     0.7230 os         1 4MY      -0.567200
     13 O23          3.9440     2.4760     1.5520 o          1 4MY      -0.967167
     14 O24          3.3880    -2.0290     5.6070 o          1 4MY      -0.971167
     15 O25         -1.6400    -3.8410     4.7150 o          1 4MY      -0.971167
     16 O26         -2.5710    -3.7980     0.8400 o          1 4MY      -0.967167
     17 O33          4.1010     1.1740     3.7080 o          1 4MY      -0.967167
     18 O34          2.1080    -3.7980     4.1450 o          1 4MY      -0.971167
     19 O35         -0.7370    -1.5320     5.1880 o          1 4MY      -0.971167
     20 O36         -4.3770    -2.0290     0.1190 o          1 4MY      -0.967167
     21 O43          5.9070     0.9120     1.8140 o          1 4MY      -0.967167
     22 O44          4.1350    -2.5830     3.2610 o          1 4MY      -0.971167
     23 O45         -2.8220    -1.6890     3.7750 o          1 4MY      -0.971167
     24 O46         -2.4140    -2.5820    -1.3670 o          1 4MY      -0.967167
     25 H1          -0.3590     0.8830     0.5140 h1         1 4MY      -0.017300
     26 H2           1.8890     0.8870    -0.5080 h1         1 4MY      -0.017300
     27 H3           1.6750     0.8830     1.9520 h1         1 4MY       0.039700
     28 H4           1.8890    -2.1320     1.6490 h1         1 4MY       0.024200
     29 H5          -0.3580    -0.3610     2.6710 h1         1 4MY       0.024200
     30 H6          -0.1450    -2.1320     0.2120 h1         1 4MY       0.039700
     31 HO11        -0.7150     0.8770    -1.5960 ho         1 4MY       0.304000
     32 HO12         2.5070    -0.9110    -1.4300 ho         1 4MY       0.304000
     33 P3           4.3470     1.1700     2.1170 p5         1 4MY       1.276400
     34 P4           2.9360    -2.4180     4.1120 p5         1 4MY       1.304900
     35 P5          -1.4040    -2.3520     4.1520 p5         1 4MY       1.304900
     36 P6          -2.8160    -2.4180     0.0470 p5         1 4MY       1.276400
@<TRIPOS>BOND
     1     7     1 1   
     2     2     1 1   
     3     1     6 1   
     4     1    25 1   
     5     8     2 1   
     6     2     3 1   
     7     2    26 1   
     8     9     3 1   
     9     3     4 1   
    10     3    27 1   
    11    13    33 1   
    12    33     9 1   
    13    33    21 1   
    14    33    17 1   
    15     4     5 1   
    16     4    10 1   
    17     4    28 1   
    18    22    34 1   
    19    10    34 1   
    20    34    14 1   
    21    34    18 1   
    22     6     5 1   
    23     5    11 1   
    24     5    29 1   
    25    11    35 1   
    26    19    35 1   
    27    35    15 1   
    28    35    23 1   
    29     6    12 1   
    30     6    30 1   
    31    24    36 1   
    32    16    36 1   
    33    36    12 1   
    34    36    20 1   
    35     7    31 1   
    36     8    32 1   
@<TRIPOS>SUBSTRUCTURE
     1 4MY         1 TEMP              0 ****  ****    0 ROOT
