@<TRIPOS>MOLECULE
4MY
   36    36     1     0     0
SMALL
bcc


@<TRIPOS>ATOM
      1 C1          0.0450   -0.2570    0.2910 c3        1 4MY      0.096100
      2 C2          1.5590   -0.0320    0.4510 c3        1 4MY      0.096100
      3 C3          2.0370   -0.0570    1.9390 c3        1 4MY      0.203100
      4 C4          1.5430   -1.4970    2.4690 c3        1 4MY      0.215100
      5 C5         -0.0880   -1.3260    2.5170 c3        1 4MY      0.215100
      6 C6         -0.5160   -1.5550    0.9690 c3        1 4MY      0.203100
      7 O11        -0.2450   -0.1150   -1.0990 oh        1 4MY     -0.689800
      8 O12         2.3000   -0.9430   -0.3590 oh        1 4MY     -0.689800
      9 O13         3.3980    0.2580    1.9750 os        1 4MY     -0.603700
     10 O14         2.1710   -1.9560    3.6090 os        1 4MY     -0.559200
     11 O15        -0.7720   -2.0860    3.4420 os        1 4MY     -0.559200
     12 O16        -1.8730   -1.6940    0.6630 os        1 4MY     -0.603700
     13 O23         3.1440    2.7710    1.1890 o         1 4MY     -0.981167
     14 O24         4.4240   -2.9140    4.5020 o         1 4MY     -0.978500
     15 O25        -3.0700   -2.2920    4.6590 o         1 4MY     -0.978500
     16 O26        -2.8890   -4.0340   -0.2750 o         1 4MY     -0.981167
     17 O33         4.4210    2.3570    3.2940 o         1 4MY     -0.981167
     18 O34         2.6160   -4.5340    4.1910 o         1 4MY     -0.978500
     19 O35        -1.2020   -1.4810    6.0140 o         1 4MY     -0.978500
     20 O36        -3.9640   -1.8500   -0.8230 o         1 4MY     -0.981167
     21 O43         5.3810    1.6650    1.1040 o         1 4MY     -0.981167
     22 O44         3.6980   -3.5730    2.1640 o         1 4MY     -0.978500
     23 O45        -2.1570    0.0340    4.2830 o         1 4MY     -0.978500
     24 O46        -1.7710   -2.4410   -1.8330 o         1 4MY     -0.981167
     25 H1         -0.4730    0.6190    0.7840 h1        1 4MY      0.022200
     26 H2          1.7840    0.9870    0.0150 h1        1 4MY      0.022200
     27 H3          1.4790    0.7420    2.5030 h1        1 4MY      0.005200
     28 H4          1.7660   -2.2460    1.6510 h1        1 4MY      0.005200
     29 H5         -0.3110   -0.2430    2.7520 h1        1 4MY      0.005200
     30 H6          0.0340   -2.4480    0.5650 h1        1 4MY      0.005200
     31 HO11       -0.6740   -0.9460   -1.3780 ho        1 4MY      0.440500
     32 HO12        2.8720   -1.4420    0.2440 ho        1 4MY      0.440500
     33 P3          4.0920    1.8250    1.9080 p5        1 4MY      1.377900
     34 P4          3.2600   -3.2920    3.5890 p5        1 4MY      1.367400
     35 P5         -1.8280   -1.4070    4.6270 p5        1 4MY      1.367400
     36 P6         -2.6400   -2.5710   -0.5870 p5        1 4MY      1.377900
@<TRIPOS>BOND
     1    1    2 1   
     2    1    6 1   
     3    1    7 1   
     4    1   25 1   
     5    2    3 1   
     6    2    8 1   
     7    2   26 1   
     8    3    4 1   
     9    3    9 1   
    10    3   27 1   
    11    4    5 1   
    12    4   10 1   
    13    4   28 1   
    14    5    6 1   
    15    5   11 1   
    16    5   29 1   
    17    6   12 1   
    18    6   30 1   
    19    7   31 1   
    20    8   32 1   
    21    9   33 1   
    22   10   34 1   
    23   11   35 1   
    24   12   36 1   
    25   13   33 1   
    26   14   34 1   
    27   15   35 1   
    28   16   36 1   
    29   17   33 1   
    30   18   34 1   
    31   19   35 1   
    32   20   36 1   
    33   21   33 1   
    34   22   34 1   
    35   23   35 1   
    36   24   36 1   
@<TRIPOS>SUBSTRUCTURE
     1 4MY         1 TEMP              0 ****  ****    0 ROOT
