@<TRIPOS>MOLECULE
molecule
   12    12     1     0     0
SMALL
bcc


@<TRIPOS>ATOM
      1 CG           0.0000     0.0000     0.0000 cc         1 4MZ       0.319600
      2 ND1          1.3410     0.0000     0.0000 nc         1 4MZ      -0.696000
      3 CD2         -0.4170    -0.0060     1.2790 cd         1 4MZ      -0.278600
      4 CE1          1.7710     0.0000     1.2320 cd         1 4MZ       0.393400
      5 NE2          0.7060    -0.0060     2.0610 na         1 4MZ      -0.298900
      6 C4          -0.8850     0.0010    -1.2200 c3         1 4MZ      -0.106400
      7 HD2         -1.4440    -0.0090     1.6240 h4         1 4MZ       0.173000
      8 HE1          2.8100     0.0010     1.5380 h5         1 4MZ       0.063100
      9 HE2          0.7330    -0.0090     3.0620 hn         1 4MZ       0.296700
     10 H41         -0.2700     0.0080    -2.1120 hc         1 4MZ       0.044700
     11 H42         -1.5150     0.8820    -1.2090 hc         1 4MZ       0.044700
     12 H43         -1.5060    -0.8870    -1.2160 hc         1 4MZ       0.044700
@<TRIPOS>BOND
     1     1     2 1   
     2     1     3 2   
     3     1     6 1   
     4     2     4 2   
     5     3     5 1   
     6     3     7 1   
     7     4     5 1   
     8     4     8 1   
     9     5     9 1   
    10     6    10 1   
    11     6    11 1   
    12     6    12 1   
@<TRIPOS>SUBSTRUCTURE
     1 4MZ         1 TEMP              0 ****  ****    0 ROOT
