@<TRIPOS>MOLECULE
4MZ
   12    12     1     0     0
SMALL
bcc


@<TRIPOS>ATOM
      1 CG         -0.0100   -0.0010   -0.0360 cc        1 4MZ      0.305600
      2 ND1         1.3920    0.0010   -0.0670 nc        1 4MZ     -0.663000
      3 CD2        -0.4510   -0.0050    1.3050 cd        1 4MZ     -0.262600
      4 CE1         1.7890   -0.0020    1.2230 cd        1 4MZ      0.384400
      5 NE2         0.6960   -0.0060    2.0960 na        1 4MZ     -0.321900
      6 C4         -0.8710    0.0010   -1.2300 c3        1 4MZ     -0.115400
      7 HD2        -1.4540   -0.0080    1.7260 h4        1 4MZ      0.176000
      8 HE1         2.8270   -0.0010    1.5710 h5        1 4MZ      0.059100
      9 HE2         0.7250   -0.0090    3.0800 hn        1 4MZ      0.298700
     10 H41        -1.5220   -0.9090   -1.2320 hc        1 4MZ      0.046367
     11 H42        -0.2690    0.0070   -2.1730 hc        1 4MZ      0.046367
     12 H43        -1.5280    0.9070   -1.2240 hc        1 4MZ      0.046367
@<TRIPOS>BOND
     1    1    2 1   
     2    1    3 2   
     3    1    6 1   
     4    2    4 2   
     5    3    5 1   
     6    3    7 1   
     7    4    5 1   
     8    4    8 1   
     9    5    9 1   
    10    6   10 1   
    11    6   11 1   
    12    6   12 1   
@<TRIPOS>SUBSTRUCTURE
     1 4MZ         1 TEMP              0 ****  ****    0 ROOT
