@<TRIPOS>MOLECULE
molecule
   42    44     1     0     0
SMALL
bcc


@<TRIPOS>ATOM
      1 C1           0.0000     0.0000     0.0000 ca         1 4N1       0.734600
      2 O1          -0.6660     0.0000    -1.1830 os         1 4N1      -0.413100
      3 N2           1.3210     0.0000     0.0000 nb         1 4N1      -0.799000
      4 C3           2.0110     0.0000     1.1310 ca         1 4N1       0.512800
      5 C4           1.3430     0.0020     2.3700 ca         1 4N1      -0.070900
      6 C5          -0.0570     0.0020     2.3880 ca         1 4N1       0.012000
      7 C6          -0.7230     0.0070     1.1900 ca         1 4N1      -0.259300
      8 N7           3.3580     0.0010     1.4240 na         1 4N1      -0.357000
      9 C8           3.4790     0.0020     2.7890 cc         1 4N1       0.366300
     10 N9           2.2900     0.0020     3.3390 nd         1 4N1      -0.512100
     11 C10          0.1260    -0.0010    -2.3720 c3         1 4N1       0.130700
     12 N11          4.6670     0.0020     3.4750 na         1 4N1       0.111800
     13 C12          4.6520     0.1600     4.7940 ca         1 4N1       0.048400
     14 C13          5.8250     0.1650     5.5160 ca         1 4N1      -0.096300
     15 C14          7.0370     0.0030     4.8450 ca         1 4N1       0.221100
     16 O14          8.2120     0.0030     5.5240 os         1 4N1      -0.336900
     17 C15          7.0130    -0.1590     3.4590 ca         1 4N1      -0.097300
     18 C16          5.8030    -0.1600     2.8050 ca         1 4N1      -0.067300
     19 C17          3.3380     0.3340     5.5090 c3         1 4N1       0.042000
     20 C18          5.8000     0.3440     7.0110 c3         1 4N1      -0.053800
     21 C19          8.2970    -0.3370     2.6920 c3         1 4N1      -0.050800
     22 S20          2.6020    -1.2930     5.8280 sh         1 4N1      -0.350900
     23 C21          8.6870    -1.2580     5.9970 c3         1 4N1       0.135700
     24 H5          -0.6000     0.0080     3.3250 ha         1 4N1       0.170000
     25 H6          -1.8000     0.1250     1.1690 ha         1 4N1       0.179000
     26 H7           4.1080     0.0000     0.7620 hn         1 4N1       0.321700
     27 H101         0.7520     0.8830    -2.3900 h1         1 4N1       0.057700
     28 H102         0.7510    -0.8860    -2.3890 h1         1 4N1       0.057700
     29 H103        -0.5240    -0.0010    -3.2390 h1         1 4N1       0.057700
     30 H16          5.7770    -0.2850     1.7290 h4         1 4N1       0.195000
     31 H171         2.6660     0.9200     4.8930 h1         1 4N1       0.114200
     32 H181         6.8110     0.4840     7.3760 hc         1 4N1       0.077700
     33 H182         5.2030     1.2130     7.2610 hc         1 4N1       0.077700
     34 H183         5.3680    -0.5350     7.4730 hc         1 4N1       0.077700
     35 H191         8.6240    -1.3670     2.7680 hc         1 4N1       0.075700
     36 H192         9.0580     0.3150     3.1040 hc         1 4N1       0.075700
     37 H193         8.1330    -0.0870     1.6500 hc         1 4N1       0.075700
     38 H211         7.9790    -2.0340     5.7320 h1         1 4N1       0.059367
     39 H212         8.7960    -1.2220     7.0740 h1         1 4N1       0.059367
     40 H213         9.6470    -1.4760     5.5440 h1         1 4N1       0.059367
     41 H172         3.5030     0.8460     6.4490 h1         1 4N1       0.114200
     42 H1           1.8420    -1.2310     6.9150 hs         1 4N1       0.242800
@<TRIPOS>BOND
     1     1     2 1   
     2     1     3 ar  
     3     1     7 ar  
     4     2    11 1   
     5     3     4 ar  
     6     4     5 ar  
     7     4     8 1   
     8     5     6 ar  
     9     5    10 1   
    10     6     7 ar  
    11     8     9 1   
    12     9    10 2   
    13     9    12 1   
    14    12    13 1   
    15    12    18 2   
    16    13    14 ar  
    17    13    19 1   
    18    14    15 ar  
    19    14    20 1   
    20    15    16 1   
    21    15    17 ar  
    22    16    23 1   
    23    17    18 ar  
    24    17    21 1   
    25    19    22 1   
    26     6    24 1   
    27     7    25 1   
    28     8    26 1   
    29    11    27 1   
    30    11    28 1   
    31    11    29 1   
    32    18    30 1   
    33    19    31 1   
    34    20    32 1   
    35    20    33 1   
    36    20    34 1   
    37    21    35 1   
    38    21    36 1   
    39    21    37 1   
    40    23    38 1   
    41    23    39 1   
    42    23    40 1   
    43    19    41 1   
    44    22    42 1   
@<TRIPOS>SUBSTRUCTURE
     1 4N1         1 TEMP              0 ****  ****    0 ROOT
