@<TRIPOS>MOLECULE
molecule
   24    24     1     0     0
SMALL
bcc


@<TRIPOS>ATOM
      1 C1           0.0000     0.0000     0.0000 c3         1 4N2       0.345900
      2 C2           1.5310     0.0000     0.0000 c3         1 4N2       0.126100
      3 C3           2.0340     0.0000     1.4480 c3         1 4N2       0.112100
      4 C4           1.4520    -1.2130     2.1790 c3         1 4N2       0.108100
      5 C5          -0.0760    -1.1650     2.0950 c3         1 4N2       0.168100
      6 C6          -0.6630    -2.4060     2.7720 c3         1 4N2       0.148400
      7 O2           2.0090    -1.1680    -0.6700 oh         1 4N2      -0.553800
      8 O3           1.6110     1.2000     2.0990 oh         1 4N2      -0.606800
      9 O4           1.9270    -2.4130     1.5660 oh         1 4N2      -0.556800
     10 O5          -0.4760    -1.1370     0.7230 os         1 4N2      -0.404600
     11 O6          -2.0880    -2.3050     2.7970 oh         1 4N2      -0.601800
     12 O1          -0.4760    -0.0570    -1.3450 oh         1 4N2      -0.579800
     13 H1          -0.3590     0.9040     0.4770 h2         1 4N2       0.034700
     14 H2           1.8920     0.8870    -0.5070 h1         1 4N2       0.042700
     15 H3           3.1150    -0.0600     1.4540 h1         1 4N2       0.046700
     16 H4           1.7560    -1.1860     3.2190 h1         1 4N2       0.034700
     17 H5          -0.4360    -0.2730     2.5920 h1         1 4N2       0.060700
     18 H62         -0.2880    -2.4760     3.7860 h1         1 4N2       0.035200
     19 H61         -0.3740    -3.2910     2.2180 h1         1 4N2       0.035200
     20 HO2          2.4830    -0.9150    -1.4450 ho         1 4N2       0.397000
     21 HO3          2.3640     1.6520     2.4430 ho         1 4N2       0.408000
     22 HO4          2.5900    -2.8020     2.1110 ho         1 4N2       0.390000
     23 HO6         -2.4460    -3.0230     3.2920 ho         1 4N2       0.400000
     24 H6          -1.2940     0.4080    -1.4090 ho         1 4N2       0.408000
@<TRIPOS>BOND
     1     8     3 1
     2     3     4 1
     3     3     2 1
     4     4     5 1
     5     4     9 1
     6     5     6 1
     7     5    10 1
     8     6    11 1
     9     2     1 1
    10     2     7 1
    11     1    10 1
    12     1    12 1
    13     1    13 1
    14     2    14 1
    15     3    15 1
    16     4    16 1
    17     5    17 1
    18     6    18 1
    19     6    19 1
    20     7    20 1
    21     8    21 1
    22     9    22 1
    23    11    23 1
    24    12    24 1
@<TRIPOS>SUBSTRUCTURE
     1 4N2         1 TEMP              0 ****  ****    0 ROOT
