@<TRIPOS>MOLECULE
molecule
   38    40     1     0     0
SMALL
bcc


@<TRIPOS>ATOM
      1 CAA          0.0000     0.0000     0.0000 c3         1 4N5      -0.190100
      2 CAK          1.5070     0.0000     0.0000 c          1 4N5       0.574700
      3 OAB          2.1150     0.0000     1.0490 o          1 4N5      -0.513100
      4 CAL          2.2420    -0.0000    -1.2760 ca         1 4N5      -0.165600
      5 CAG          3.6400    -0.0050    -1.2800 ca         1 4N5      -0.035000
      6 CAD          1.5450    -0.0010    -2.4880 ca         1 4N5      -0.072000
      7 CAC          2.2380    -0.0000    -3.6810 ca         1 4N5      -0.120000
      8 CAE          3.6210    -0.0010    -3.6830 ca         1 4N5      -0.075000
      9 CAM          4.3230    -0.0060    -2.4840 ca         1 4N5      -0.022200
     10 NAN          5.7260    -0.0110    -2.4940 na         1 4N5       0.061500
     11 NAJ          6.5890     0.7640    -1.6990 nc         1 4N5      -0.173800
     12 NAI          7.7910     0.4360    -2.0310 nd         1 4N5      -0.007000
     13 NAH          7.7690    -0.4600    -2.9490 nd         1 4N5      -0.322000
     14 CAF          6.5380    -0.7670    -3.2650 cc         1 4N5       0.215400
     15 HAB         -0.3610     0.0000     1.0210 hc         1 4N5       0.064700
     16 HAC         -0.3610    -0.8850    -0.5110 hc         1 4N5       0.064700
     17 HAA         -0.3610     0.8840    -0.5110 hc         1 4N5       0.064700
     18 HAH          4.1870    -0.0090    -0.3450 ha         1 4N5       0.177000
     19 HAE          0.4620     0.0000    -2.4910 ha         1 4N5       0.143000
     20 HAD          1.6970     0.0010    -4.6200 ha         1 4N5       0.143000
     21 HAF          4.1590    -0.0010    -4.6230 ha         1 4N5       0.120000
     22 S1           6.0320    -1.9500    -4.4690 sy         1 4N5       1.125900
     23 C1           5.9880    -1.0210    -6.0260 c3         1 4N5      -0.144300
     24 C2           5.4390    -1.9010    -7.1200 ca         1 4N5      -0.092300
     25 C3           4.0790    -1.9300    -7.3670 ca         1 4N5      -0.107000
     26 C4           3.5760    -2.7370    -8.3700 ca         1 4N5      -0.115000
     27 C5           4.4320    -3.5150    -9.1270 ca         1 4N5      -0.105000
     28 C6           5.7930    -3.4860    -8.8800 ca         1 4N5       0.032400
     29 C7           6.2970    -2.6750    -7.8790 ca         1 4N5      -0.099000
     30 Cl1          6.8690    -4.4630    -9.8300 cl         1 4N5      -0.091400
     31 O1           7.0850    -2.9040    -4.4870 o          1 4N5      -0.574300
     32 O2           4.7180    -2.3160    -4.0690 o          1 4N5      -0.574300
     33 H1           5.3540    -0.1510    -5.9100 h1         1 4N5       0.112200
     34 H2           6.9910    -0.7050    -6.2860 h1         1 4N5       0.112200
     35 H3           3.4080    -1.3210    -6.7740 ha         1 4N5       0.136000
     36 H4           2.5100    -2.7590    -8.5630 ha         1 4N5       0.144000
     37 H5           4.0370    -4.1490    -9.9120 ha         1 4N5       0.151000
     38 H6           7.3630    -2.6510    -7.6860 ha         1 4N5       0.158000
@<TRIPOS>BOND
     1    12    11 2
     2    12    13 1
     3    11    10 1
     4    13    14 2
     5     3     2 2
     6    10    14 1
     7    10     9 1
     8     5     9 ar
     9     5     4 ar
    10     2     1 1
    11     2     4 1
    12     9     8 ar
    13     4     6 ar
    14     8     7 ar
    15     6     7 ar
    16     1    15 1
    17     1    16 1
    18     1    17 1
    19     5    18 1
    20     6    19 1
    21     7    20 1
    22     8    21 1
    23    14    22 1
    24    22    23 1
    25    23    24 1
    26    24    25 ar
    27    25    26 ar
    28    26    27 ar
    29    27    28 ar
    30    28    29 ar
    31    29    24 ar
    32    28    30 1
    33    22    31 2
    34    22    32 2
    35    23    33 1
    36    23    34 1
    37    25    35 1
    38    26    36 1
    39    27    37 1
    40    29    38 1
@<TRIPOS>SUBSTRUCTURE
     1 4N5         1 TEMP              0 ****  ****    0 ROOT
