@<TRIPOS>MOLECULE
4N5
   38    39     1     0     0
SMALL
bcc


@<TRIPOS>ATOM
      1 CAA         0.4050    0.1050    0.1580 c3        1 4N5     -0.266000
      2 CAK         1.8850    0.1210   -0.0520 c2        1 4N5      0.267000
      3 OAB         2.6680    0.3450    0.8790 o         1 4N5     -0.283000
      4 CAL         2.3800   -0.1410   -1.4250 ca        1 4N5     -0.153000
      5 CAG         3.7440    0.0420   -1.6860 ca        1 4N5     -0.039000
      6 CAD         1.5260   -0.5650   -2.4490 ca        1 4N5     -0.066000
      7 CAC         2.0270   -0.8030   -3.7270 ca        1 4N5     -0.135000
      8 CAE         3.3790   -0.6230   -4.0080 ca        1 4N5     -0.051000
      9 CAM         4.2430   -0.2040   -2.9780 ca        1 4N5     -0.007000
     10 NAN         5.6330    0.0130   -3.2470 na        1 4N5     -0.022000
     11 NAJ         6.2750    1.1620   -2.9810 n2        1 4N5      0.019000
     12 NAI         7.5040    1.0210   -3.3380 n2        1 4N5     -0.037000
     13 NAH         7.7460   -0.1740   -3.8360 n2        1 4N5     -0.035000
     14 CAF         6.5690   -0.8860   -3.8030 c2        1 4N5     -0.740000
     15 HAB         0.0090   -0.9260   -0.0120 hc        1 4N5      0.108000
     16 HAC        -0.0930    0.8090   -0.5530 hc        1 4N5      0.108000
     17 HAA         0.1610    0.4150    1.2040 hc        1 4N5      0.108000
     18 HAH         4.4020    0.3810   -0.8660 ha        1 4N5      0.180000
     19 HAE         0.4520   -0.7150   -2.2520 ha        1 4N5      0.146000
     20 HAD         1.3500   -1.1390   -4.5280 ha        1 4N5      0.151000
     21 HAF         3.7640   -0.8280   -5.0220 ha        1 4N5      0.163000
     22 S1          6.4320   -2.5210   -4.2780 s6        1 4N5      2.868000
     23 C1          6.9760   -2.4370   -5.9070 c3        1 4N5     -0.845000
     24 C2          5.8780   -2.2530   -6.9280 c3        1 4N5      0.060000
     25 C3          5.3220   -0.9060   -6.9750 c1        1 4N5     -0.169000
     26 C4          5.2110   -0.1950   -7.9790 c1        1 4N5     -0.164000
     27 C5          5.6330   -0.2340   -9.3240 c1        1 4N5      0.205000
     28 C6          6.2260   -1.6230   -9.3840 c2        1 4N5     -0.186000
     29 C7          6.3800   -2.4980   -8.3510 c2        1 4N5     -0.123000
     30 CL1         6.7640   -2.0400  -10.9350 cl        1 4N5      0.039000
     31 O1          7.3320   -3.2860   -3.5510 o         1 4N5     -0.905000
     32 O2          5.0900   -2.9010   -4.2700 o         1 4N5     -0.905000
     33 H1          7.7550   -1.6410   -6.0650 h1        1 4N5      0.182000
     34 H2          7.5180   -3.3980   -6.1470 h1        1 4N5      0.182000
     35 H3          5.0340   -2.9910   -6.7260 hc        1 4N5      0.180000
     36 H4          3.3810   -4.1290   -5.2790 ha        1 4N5      0.002000
     37 H5          3.4740   -4.2760   -5.9340 ha        1 4N5      0.002000
     38 H6          6.8750   -3.4740   -8.4810 ha        1 4N5      0.162000
@<TRIPOS>BOND
     1    1    2 1   
     2    1   15 1   
     3    1   16 1   
     4    1   17 1   
     5    2    3 1   
     6    2    4 1   
     7    4    5 1   
     8    4    6 1   
     9    5    9 1   
    10    5   18 1   
    11    6    7 1   
    12    6   19 1   
    13    7    8 1   
    14    7   20 1   
    15    8    9 1   
    16    8   21 1   
    17    9   10 1   
    18   10   11 1   
    19   10   14 1   
    20   11   12 1   
    21   12   13 1   
    22   13   14 1   
    23   14   22 1   
    24   22   23 1   
    25   22   31 1   
    26   22   32 1   
    27   23   24 1   
    28   23   33 1   
    29   23   34 1   
    30   24   25 1   
    31   24   29 1   
    32   24   35 1   
    33   25   26 1   
    34   26   27 1   
    35   27   28 1   
    36   28   29 1   
    37   28   30 1   
    38   29   38 1   
    39   36   37 1   
@<TRIPOS>SUBSTRUCTURE
     1 4N5         1 TEMP              0 ****  ****    0 ROOT
