@<TRIPOS>MOLECULE
4N6
   24    25     1     0     0
SMALL
bcc


@<TRIPOS>ATOM
      1 OAA         0.5020   -0.7510    0.4180 o         1 4N6     -0.215500
      2 NAQ         1.2620    0.1240    0.0710 no        1 4N6      0.339200
      3 OAC         1.4590    1.0810    0.7670 o         1 4N6     -0.215500
      4 CAN         1.9640    0.0050   -1.2170 ca        1 4N6     -0.300200
      5 CAP         2.3920    1.2120   -1.8550 ca        1 4N6     -0.030000
      6 NAI         2.2550    2.5280   -1.5670 nc        1 4N6     -0.080500
      7 OAK         2.8600    3.1990   -2.5510 os        1 4N6      0.203000
      8 NAH         3.3940    2.4400   -3.4900 nc        1 4N6     -0.045500
      9 CAO         3.1470    1.1590   -3.1360 ca        1 4N6     -0.156000
     10 CAL         3.4350   -0.1140   -3.7200 ca        1 4N6      0.129400
     11 CAE         2.9960   -1.2400   -3.0990 ca        1 4N6     -0.185000
     12 CAM         2.2410   -1.2330   -1.8420 ca        1 4N6      0.318600
     13 NAJ         1.8790   -2.4270   -1.2930 nh        1 4N6     -0.732600
     14 CAG         2.1770   -3.7010   -1.8990 c3        1 4N6      0.200800
     15 CAF         1.7420   -4.8850   -1.0210 c3        1 4N6      0.117400
     16 OAB         0.3280   -4.8590   -0.9580 oh        1 4N6     -0.599800
     17 HAE         3.2090   -2.2170   -3.5660 ha        1 4N6      0.165000
     18 HAJ         1.2010   -2.4470   -0.5530 hn        1 4N6      0.488800
     19 HAH         1.6510   -3.7870   -2.8940 h1        1 4N6      0.060700
     20 HAI         3.2890   -3.7890   -2.0630 h1        1 4N6      0.060700
     21 HAG         2.0890   -5.8330   -1.5130 h1        1 4N6      0.043700
     22 HAF         2.1870   -4.8160    0.0070 h1        1 4N6      0.043700
     23 HAB         0.0620   -5.5290   -0.3170 ho        1 4N6      0.416000
     24 CL1         4.3000   -0.1770   -5.1660 cl        1 4N6     -0.023400
@<TRIPOS>BOND
     1    1    2 1   
     2    2    3 1   
     3    2    4 1   
     4    4    5 ar  
     5    4   12 ar  
     6    5    6 2   
     7    5    9 ar  
     8    6    7 1   
     9    7    8 1   
    10    8    9 2   
    11    9   10 ar  
    12   10   11 ar  
    13   10   24 1   
    14   11   12 ar  
    15   11   17 1   
    16   12   13 1   
    17   13   14 1   
    18   13   18 1   
    19   14   15 1   
    20   14   19 1   
    21   14   20 1   
    22   15   16 1   
    23   15   21 1   
    24   15   22 1   
    25   16   23 1   
@<TRIPOS>SUBSTRUCTURE
     1 4N6         1 TEMP              0 ****  ****    0 ROOT
