@<TRIPOS>MOLECULE
molecule
   30    32     1     0     0
SMALL
bcc


@<TRIPOS>ATOM
      1 C1           0.0000     0.0000     0.0000 ca         1 4NA       0.115100
      2 C2           1.3770     0.0000     0.0000 ca         1 4NA       0.008400
      3 C3           2.0690     0.0000     1.2230 ca         1 4NA      -0.023000
      4 C4           1.3360     0.0010     2.4370 ca         1 4NA      -0.035000
      5 C5          -0.0690    -0.0000     2.3990 ca         1 4NA      -0.101000
      6 C6          -0.7150    -0.0010     1.2010 ca         1 4NA      -0.144000
      7 C9           3.4760    -0.0000     1.2590 ca         1 4NA      -0.113000
      8 C10          4.1240     0.0000     2.4510 ca         1 4NA      -0.109000
      9 C11          3.4090    -0.0000     3.6610 cp         1 4NA      -0.030000
     10 C12          2.0270    -0.0060     3.6590 ca         1 4NA      -0.107000
     11 C16          4.1430     0.0000     4.9490 cp         1 4NA      -0.052000
     12 C17          3.6850    -0.7740     6.0140 ca         1 4NA      -0.103500
     13 C18          4.3720    -0.7750     7.2100 ca         1 4NA      -0.152000
     14 C19          5.5130     0.0020     7.3570 ca         1 4NA       0.108100
     15 C20          5.9720     0.7740     6.2980 ca         1 4NA      -0.152000
     16 C21          5.2920     0.7760     5.0980 ca         1 4NA      -0.103500
     17 O26          6.1850     0.0020     8.5380 oh         1 4NA      -0.522100
     18 Cl27         2.2510    -0.0000    -1.4990 cl         1 4NA      -0.088400
     19 O28         -0.6720    -0.0000    -1.1820 oh         1 4NA      -0.512100
     20 H5          -0.6370    -0.0010     3.3210 ha         1 4NA       0.139000
     21 H6          -1.7980    -0.0010     1.1780 ha         1 4NA       0.146000
     22 H9           4.0410     0.0000     0.3350 ha         1 4NA       0.149000
     23 H10          5.2070     0.0050     2.4710 ha         1 4NA       0.138000
     24 H12          1.4800    -0.0060     4.5940 ha         1 4NA       0.140000
     25 H17          2.7940    -1.3810     5.8990 ha         1 4NA       0.138000
     26 H18          4.0160    -1.3770     8.0370 ha         1 4NA       0.142000
     27 H20          6.8640     1.3780     6.4160 ha         1 4NA       0.142000
     28 H21          5.6500     1.3790     4.2730 ha         1 4NA       0.138000
     29 H26          5.8440     0.6830     9.0940 ho         1 4NA       0.420000
     30 H28         -0.8700     0.8870    -1.4310 ho         1 4NA       0.423000
@<TRIPOS>BOND
     1     1     2 ar
     2     1     6 ar
     3     1    19 1
     4     2     3 ar
     5     2    18 1
     6     3     4 ar
     7     3     7 ar
     8     4     5 ar
     9     4    10 ar
    10     5     6 ar
    11     5    20 1
    12     6    21 1
    13     7     8 ar
    14     7    22 1
    15     8     9 ar
    16     8    23 1
    17     9    10 ar
    18     9    11 1
    19    10    24 1
    20    11    12 ar
    21    11    16 ar
    22    12    13 ar
    23    12    25 1
    24    13    14 ar
    25    13    26 1
    26    14    15 ar
    27    14    17 1
    28    15    16 ar
    29    15    27 1
    30    16    28 1
    31    17    29 1
    32    19    30 1
@<TRIPOS>SUBSTRUCTURE
     1 4NA         1 TEMP              0 ****  ****    0 ROOT
