@<TRIPOS>MOLECULE
4NA
   30    32     1     0     0
SMALL
bcc


@<TRIPOS>ATOM
      1 C1         -0.0850    0.0510    0.0050 ca        1 4NA      0.144100
      2 C2          1.3020    0.0480   -0.0110 ca        1 4NA     -0.075600
      3 C3          2.0340    0.0540    1.2120 ca        1 4NA      0.008000
      4 C4          1.3170    0.0620    2.4370 ca        1 4NA     -0.059000
      5 C5         -0.1070    0.0650    2.4210 ca        1 4NA     -0.085000
      6 C6         -0.7980    0.0600    1.2410 ca        1 4NA     -0.140000
      7 C9          3.4550    0.0530    1.2600 ca        1 4NA     -0.124000
      8 C10         4.1200    0.0610    2.4610 ca        1 4NA     -0.106000
      9 C11         3.4070    0.0680    3.6900 cp        1 4NA     -0.033000
     10 C12         2.0260    0.0680    3.6650 ca        1 4NA     -0.102000
     11 C16         4.1400    0.0750    4.9540 cp        1 4NA     -0.075000
     12 C17         3.7040   -0.7090    6.0310 ca        1 4NA     -0.081500
     13 C18         4.3980   -0.7070    7.2370 ca        1 4NA     -0.185500
     14 C19         5.5420    0.0910    7.3710 ca        1 4NA      0.128100
     15 C20         5.9930    0.8850    6.3020 ca        1 4NA     -0.185500
     16 C21         5.2890    0.8680    5.1040 ca        1 4NA     -0.081500
     17 O26         6.2800    0.1470    8.5300 oh        1 4NA     -0.496100
     18 CL27        2.1350    0.0380   -1.5000 cl        1 4NA     -0.096400
     19 O28        -0.8820    0.0450   -1.1110 oh        1 4NA     -0.490100
     20 H5         -0.6440    0.0730    3.3820 ha        1 4NA      0.140000
     21 H6         -1.8970    0.0620    1.2040 ha        1 4NA      0.157000
     22 H9          4.0230    0.0440    0.3170 ha        1 4NA      0.146000
     23 H10         5.2210    0.0540    2.4860 ha        1 4NA      0.139000
     24 H12         1.4520    0.0790    4.6040 ha        1 4NA      0.137000
     25 H17         2.8080   -1.3390    5.9200 ha        1 4NA      0.138000
     26 H18         4.0530   -1.3270    8.0770 ha        1 4NA      0.143500
     27 H20         6.8910    1.5060    6.4280 ha        1 4NA      0.143500
     28 H21         5.6330    1.4920    4.2650 ha        1 4NA      0.138000
     29 H26         5.8640   -0.4420    9.1770 ho        1 4NA      0.420000
     30 H28        -0.3140    0.0400   -1.8980 ho        1 4NA      0.431000
@<TRIPOS>BOND
     1    1    2 ar  
     2    1    6 ar  
     3    1   19 1   
     4    2    3 ar  
     5    2   18 1   
     6    3    4 ar  
     7    3    7 ar  
     8    4    5 ar  
     9    4   10 ar  
    10    5    6 ar  
    11    5   20 1   
    12    6   21 1   
    13    7    8 ar  
    14    7   22 1   
    15    8    9 ar  
    16    8   23 1   
    17    9   10 ar  
    18    9   11 1   
    19   10   24 1   
    20   11   12 ar  
    21   11   16 ar  
    22   12   13 ar  
    23   12   25 1   
    24   13   14 ar  
    25   13   26 1   
    26   14   15 ar  
    27   14   17 1   
    28   15   16 ar  
    29   15   27 1   
    30   16   28 1   
    31   17   29 1   
    32   19   30 1   
@<TRIPOS>SUBSTRUCTURE
     1 4NA         1 TEMP              0 ****  ****    0 ROOT
