@<TRIPOS>MOLECULE
molecule
   16    16     1     0     0
SMALL
bcc


@<TRIPOS>ATOM
      1 C            0.0000     0.0000     0.0000 c          1 4NB       0.874200
      2 O1           1.3470     0.0000     0.0000 o          1 4NB      -0.820800
      3 O2          -0.6070     0.0000     1.0520 o          1 4NB      -0.820800
      4 C1          -0.7380     0.0020    -1.2790 ca         1 4NB      -0.053600
      5 C2          -0.0440     0.0080    -2.4900 ca         1 4NB      -0.114000
      6 C3          -0.7400     0.0040    -3.6810 ca         1 4NB      -0.100000
      7 C4          -2.1240     0.0040    -3.6770 ca         1 4NB      -0.185200
      8 C5          -2.8180     0.0040    -2.4810 ca         1 4NB      -0.100000
      9 C6          -2.1350     0.0020    -1.2820 ca         1 4NB      -0.114000
     10 N           -2.8640     0.0060    -4.9590 no         1 4NB       0.300200
     11 O1'         -4.0820     0.0060    -4.9590 o          1 4NB      -0.242000
     12 O2'         -2.2550     0.0060    -6.0130 o          1 4NB      -0.242000
     13 H2           1.0370     0.0910    -2.4940 ha         1 4NB       0.166500
     14 H3          -0.2030    -0.0000    -4.6220 ha         1 4NB       0.142500
     15 H5          -3.9020     0.0050    -2.4850 ha         1 4NB       0.142500
     16 H6          -2.6790    -0.0790    -0.3490 ha         1 4NB       0.166500
@<TRIPOS>BOND
     1     1     2 1
     2     1     3 1
     3     1     4 1
     4     4     5 ar
     5     4     9 ar
     6     5     6 ar
     7     5    13 1
     8     6     7 ar
     9     6    14 1
    10     7     8 ar
    11     7    10 1
    12     8     9 ar
    13     8    15 1
    14     9    16 1
    15    10    11 1
    16    10    12 1
@<TRIPOS>SUBSTRUCTURE
     1 4NB         1 TEMP              0 ****  ****    0 ROOT
