@<TRIPOS>MOLECULE
4NC
   16    16     1     0     0
SMALL
bcc


@<TRIPOS>ATOM
      1 C1           0.0000     0.0000     0.0000 ca         1 4NC       0.187100
      2 C2           1.3980     0.0000     0.0000 ca         1 4NC       0.064100
      3 C3           2.0860     0.0000     1.1920 ca         1 4NC      -0.009000
      4 C4           1.3750    -0.0120     2.4070 ca         1 4NC      -0.514200
      5 C5          -0.0340    -0.0180     2.3900 ca         1 4NC       0.027000
      6 C6          -0.7020    -0.0130     1.2020 ca         1 4NC      -0.173000
      7 O7          -0.6750     0.0060    -1.1760 oh         1 4NC      -0.488100
      8 O8           2.0790     0.0110    -1.1770 oh         1 4NC      -0.481100
      9 N9           2.0320    -0.0170     3.5740 no         1 4NC       1.097200
     10 O10          1.4140    -0.0260     4.6240 o          1 4NC      -0.481000
     11 O11          3.2500    -0.0110     3.5860 o          1 4NC      -0.481000
     12 H3           3.1690     0.0020     1.1960 ha         1 4NC       0.149000
     13 H5          -0.5860    -0.0280     3.3210 ha         1 4NC       0.140000
     14 H6          -1.7850    -0.0150     1.1930 ha         1 4NC       0.128000
     15 HO7         -1.0350     0.8640    -1.3270 ho         1 4NC       0.420000
     16 HO8          2.4320    -0.8470    -1.3440 ho         1 4NC       0.412000
@<TRIPOS>BOND
     1     1     2 ar  
     2     1     6 ar  
     3     1     7 1   
     4     2     3 ar  
     5     2     8 1   
     6     3     4 ar  
     7     3    12 1   
     8     4     5 ar  
     9     4     9 1   
    10     5     6 ar  
    11     5    13 1   
    12     6    14 1   
    13     7    15 1   
    14     8    16 1   
    15     9    10 1   
    16     9    11 1   
@<TRIPOS>SUBSTRUCTURE
     1 4NC         1 TEMP              0 ****  ****    0 ROOT
