@<TRIPOS>MOLECULE
molecule
   36    37     1     0     0
SMALL
bcc


@<TRIPOS>ATOM
      1 C1           0.0000     0.0000     0.0000 c          1 4ND       0.801100
      2 O1           1.2350     0.0000     0.0000 o          1 4ND      -0.600100
      3 N5          -0.7870     0.0000     1.1840 n          1 4ND      -0.332200
      4 C3          -2.2270    -0.0370     1.0890 ca         1 4ND       0.048100
      5 C4          -2.9100     1.1530     1.1080 ca         1 4ND      -0.137750
      6 C5          -4.3010     1.1170     1.0170 ca         1 4ND      -0.115500
      7 C6          -4.9620    -0.1060     0.9080 ca         1 4ND      -0.125000
      8 C7          -4.2310    -1.2950     0.8930 ca         1 4ND      -0.115500
      9 C8          -2.8400    -1.2600     0.9840 ca         1 4ND      -0.137750
     10 C9          -0.2060    -0.0510     2.4990 ca         1 4ND       0.048100
     11 C10         -0.8810    -0.7270     3.4870 ca         1 4ND      -0.137750
     12 C11         -0.3170    -0.7760     4.7620 ca         1 4ND      -0.115500
     13 C12          0.9030    -0.1480     5.0090 ca         1 4ND      -0.125000
     14 C13          1.5610     0.5290     3.9820 ca         1 4ND      -0.115500
     15 C14          0.9970     0.5780     2.7070 ca         1 4ND      -0.137750
     16 N4          -0.7410    -0.0370    -1.1770 ns         1 4ND      -0.413300
     17 N3          -0.0660    -0.0740    -2.3670 nu         1 4ND      -0.602200
     18 N2           0.1160     0.3220    -4.6140 nz         1 4ND      -0.815600
     19 N1          -1.7770     1.1290    -3.4950 n2         1 4ND      -0.761100
     20 C15         -0.6410     0.4920    -3.4810 c2         1 4ND       0.697100
     21 HC41        -2.3820     2.0950     1.1930 ha         1 4ND       0.152250
     22 HC51        -4.8680     2.0400     1.0290 ha         1 4ND       0.144250
     23 HC61        -6.0430    -0.1340     0.8370 ha         1 4ND       0.145000
     24 HC71        -4.7440    -2.2450     0.8090 ha         1 4ND       0.144250
     25 HC81        -2.2590    -2.1740     0.9730 ha         1 4ND       0.152250
     26 H101        -1.6960    -1.3920     3.2290 ha         1 4ND       0.152250
     27 H111        -0.8180    -1.3170     5.5550 ha         1 4ND       0.144250
     28 H121         1.3400    -0.1850     6.0000 ha         1 4ND       0.145000
     29 H131         2.4960     1.0380     4.1810 ha         1 4ND       0.144250
     30 H141         1.6110     1.2970     2.1770 ha         1 4ND       0.152250
     31 HN41        -1.7160    -0.2610    -1.1480 hn         1 4ND       0.371500
     32 HN31         0.7500    -0.6460    -2.4610 hn         1 4ND       0.486800
     33 HN21        -0.2650     0.8750    -5.3560 hn         1 4ND       0.469800
     34 HN22         0.1080    -0.6430    -4.8790 hn         1 4ND       0.469800
     35 HN11        -2.1260     1.5140    -4.3510 hn         1 4ND       0.447400
     36 H23          1.0570     0.6110    -4.4330 hn         1 4ND       0.469800
@<TRIPOS>BOND
     1     1     2 2   
     2     1     3 1   
     3     1    16 1   
     4     3     4 1   
     5     3    10 1   
     6     4     5 ar  
     7     4     9 ar  
     8     5     6 ar  
     9     5    21 1   
    10     6     7 ar  
    11     6    22 1   
    12     7     8 ar  
    13     7    23 1   
    14     8     9 ar  
    15     8    24 1   
    16     9    25 1   
    17    10    11 ar  
    18    10    15 ar  
    19    11    12 ar  
    20    11    26 1   
    21    12    13 ar  
    22    12    27 1   
    23    13    14 ar  
    24    13    28 1   
    25    14    15 ar  
    26    14    29 1   
    27    15    30 1   
    28    16    17 1   
    29    16    31 1   
    30    17    20 1   
    31    17    32 1   
    32    18    20 1   
    33    18    33 1   
    34    18    34 1   
    35    19    20 2   
    36    19    35 1   
    37    36    18 1   
@<TRIPOS>SUBSTRUCTURE
     1 4ND         1 TEMP              0 ****  ****    0 ROOT
