@<TRIPOS>MOLECULE
4NE
   53    52     1     0     0
SMALL
bcc


@<TRIPOS>ATOM
      1 C10         0.2120    0.0440   -0.0260 c3        1 4NE     -0.559600
      2 C13        -2.4770   -2.3400    1.3490 c3        1 4NE     -0.100100
      3 C15         3.8210    1.4240   -0.8220 c3        1 4NE     -0.063400
      4 C17         5.8010    2.7340   -1.5790 c3        1 4NE     -0.100100
      5 P01         1.8230    0.0000    0.0000 p5        1 4NE      1.624800
      6 C02         2.3840   -0.0440    1.5100 c3        1 4NE     -0.559600
      7 C03         1.9290    1.1570    2.3110 c3        1 4NE     -0.063400
      8 C04         2.4490    1.1310    3.7330 c3        1 4NE     -0.074400
      9 C05         1.9800    2.3370    4.5070 c3        1 4NE     -0.100100
     10 C06         2.3850   -1.3300   -0.7160 c3        1 4NE     -0.559600
     11 C07         1.9330   -1.4220   -2.1580 c3        1 4NE     -0.063400
     12 C08         2.4520   -2.6660   -2.8460 c3        1 4NE     -0.074400
     13 C09         1.9860   -2.7320   -4.2780 c3        1 4NE     -0.100100
     14 C11        -0.3910   -1.1580    0.6680 c3        1 4NE     -0.063400
     15 C12        -1.9050   -1.1320    0.6530 c3        1 4NE     -0.074400
     16 C14         2.3110    1.3310   -0.7680 c3        1 4NE     -0.559600
     17 C16         4.2960    2.6680   -1.5400 c3        1 4NE     -0.074400
     18 H10        -0.2290    0.0860   -1.0650 hc        1 4NE      0.145700
     19 H10A       -0.2290    0.9640    0.4580 hc        1 4NE      0.145700
     20 H13        -3.5940   -2.2990    1.3260 hc        1 4NE      0.048033
     21 H13A       -2.1500   -2.3770    2.4160 hc        1 4NE      0.048033
     22 H13B       -2.1500   -3.2820    0.8460 hc        1 4NE      0.048033
     23 H15         4.2220    0.5160   -1.3480 hc        1 4NE      0.050700
     24 H15A        4.2220    1.4260    0.2270 hc        1 4NE      0.050700
     25 H17         6.2250    2.7570   -0.5460 hc        1 4NE      0.048033
     26 H17A        6.2250    1.8510   -2.1150 hc        1 4NE      0.048033
     27 H17B        6.1280    3.6590   -2.1140 hc        1 4NE      0.048033
     28 H02         3.5110   -0.0840    1.5800 hc        1 4NE      0.145700
     29 H02A        2.0770   -0.9650    2.0870 hc        1 4NE      0.145700
     30 H03         0.8070    1.1790    2.3280 hc        1 4NE      0.050700
     31 H03A        2.2900    2.0910    1.8030 hc        1 4NE      0.050700
     32 H04         3.5700    1.1010    3.7210 hc        1 4NE      0.052700
     33 H04A        2.0970    0.1940    4.2420 hc        1 4NE      0.052700
     34 H05         2.3430    3.2800    4.0310 hc        1 4NE      0.048033
     35 H05A        0.8650    2.3710    4.5540 hc        1 4NE      0.048033
     36 H05B        2.3750    2.2960    5.5510 hc        1 4NE      0.048033
     37 H06         2.0760   -2.2890   -0.2080 hc        1 4NE      0.145700
     38 H06A        3.5110   -1.4100   -0.7150 hc        1 4NE      0.145700
     39 H07         2.2950   -0.5150   -2.7110 hc        1 4NE      0.050700
     40 H07A        0.8100   -1.4250   -2.1870 hc        1 4NE      0.050700
     41 H08         3.5740   -2.6710   -2.8120 hc        1 4NE      0.052700
     42 H08A        2.0990   -3.5750   -2.2910 hc        1 4NE      0.052700
     43 H09         0.8710   -2.7550   -4.3330 hc        1 4NE      0.048033
     44 H09A        2.3810   -3.6570   -4.7640 hc        1 4NE      0.048033
     45 H09B        2.3500   -1.8480   -4.8560 hc        1 4NE      0.048033
     46 H11        -0.0320   -1.1820    1.7310 hc        1 4NE      0.050700
     47 H11A       -0.0320   -2.0910    0.1560 hc        1 4NE      0.050700
     48 H12        -2.2670   -0.1970    1.1570 hc        1 4NE      0.052700
     49 H12A       -2.2680   -1.0990   -0.4080 hc        1 4NE      0.052700
     50 H14         1.9340    1.4120   -1.8290 hc        1 4NE      0.145700
     51 H14A        1.9340    2.2900   -0.3070 hc        1 4NE      0.145700
     52 H16         3.8900    2.6730   -2.5870 hc        1 4NE      0.052700
     53 H16A        3.8900    3.5770   -1.0220 hc        1 4NE      0.052700
@<TRIPOS>BOND
     1    1    5 1   
     2    1   14 1   
     3    1   18 1   
     4    1   19 1   
     5    2   15 1   
     6    2   20 1   
     7    2   21 1   
     8    2   22 1   
     9    3   16 1   
    10    3   17 1   
    11    3   23 1   
    12    3   24 1   
    13    4   17 1   
    14    4   25 1   
    15    4   26 1   
    16    4   27 1   
    17    5    6 1   
    18    5   10 1   
    19    5   16 1   
    20    6    7 1   
    21    6   28 1   
    22    6   29 1   
    23    7    8 1   
    24    7   30 1   
    25    7   31 1   
    26    8    9 1   
    27    8   32 1   
    28    8   33 1   
    29    9   34 1   
    30    9   35 1   
    31    9   36 1   
    32   10   11 1   
    33   10   37 1   
    34   10   38 1   
    35   11   12 1   
    36   11   39 1   
    37   11   40 1   
    38   12   13 1   
    39   12   41 1   
    40   12   42 1   
    41   13   43 1   
    42   13   44 1   
    43   13   45 1   
    44   14   15 1   
    45   14   46 1   
    46   14   47 1   
    47   15   48 1   
    48   15   49 1   
    49   16   50 1   
    50   16   51 1   
    51   17   52 1   
    52   17   53 1   
@<TRIPOS>SUBSTRUCTURE
     1 4NE         1 TEMP              0 ****  ****    0 ROOT
