@<TRIPOS>MOLECULE
molecule
   53    52     1     0     0
SMALL
bcc


@<TRIPOS>ATOM
      1 C10          0.0000     0.0000     0.0000 c3         1 4NE      -0.144850
      2 C13         -2.5490    -2.5010     1.4420 c3         1 4NE      -0.093100
      3 C15          3.9600     1.4890    -0.8600 c3         1 4NE      -0.079400
      4 C17          5.9990     2.7400    -1.5800 c3         1 4NE      -0.093100
      5 P01          1.8230     0.0000     0.0000 p5         1 4NE       0.324800
      6 C02          2.4310     0.0000     1.7180 c3         1 4NE      -0.144850
      7 C03          1.9200     1.2500     2.4400 c3         1 4NE      -0.079400
      8 C04          2.4300     1.2490     3.8830 c3         1 4NE      -0.074400
      9 C05          1.9190     2.4990     4.6040 c3         1 4NE      -0.093100
     10 C06          2.4310    -1.4890    -0.8590 c3         1 4NE      -0.144850
     11 C07          1.9210    -1.4890    -2.3020 c3         1 4NE      -0.079400
     12 C08          2.4320    -2.7380    -3.0230 c3         1 4NE      -0.074400
     13 C09          1.9220    -2.7370    -4.4660 c3         1 4NE      -0.093100
     14 C11         -0.5100    -1.2500     0.7220 c3         1 4NE      -0.079400
     15 C12         -2.0400    -1.2510     0.7210 c3         1 4NE      -0.074400
     16 C14          2.4290     1.4890    -0.8600 c3         1 4NE      -0.144850
     17 C16          4.4690     2.7390    -1.5810 c3         1 4NE      -0.074400
     18 H10         -0.3610     0.8840     0.5110 hc         1 4NE       0.106700
     19 H10A        -0.3610     0.0000    -1.0210 hc         1 4NE       0.106700
     20 H13         -2.1870    -3.3850     0.9310 hc         1 4NE       0.046367
     21 H13A        -2.1880    -2.5000     2.4630 hc         1 4NE       0.046367
     22 H13B        -3.6320    -2.5020     1.4420 hc         1 4NE       0.046367
     23 H15          4.3220     0.6050    -1.3700 hc         1 4NE       0.050700
     24 H15A         4.3210     1.4900     0.1620 hc         1 4NE       0.050700
     25 H17          6.3610     3.6240    -2.0910 hc         1 4NE       0.046367
     26 H17A         6.3600     2.7400    -0.5590 hc         1 4NE       0.046367
     27 H17B         6.3610     1.8550    -2.0910 hc         1 4NE       0.046367
     28 H02          3.5140     0.0010     1.7180 hc         1 4NE       0.106700
     29 H02A         2.0710    -0.8850     2.2290 hc         1 4NE       0.106700
     30 H03          0.8370     1.2490     2.4400 hc         1 4NE       0.050700
     31 H03A         2.2810     2.1350     1.9300 hc         1 4NE       0.050700
     32 H04          3.5130     1.2500     3.8830 hc         1 4NE       0.053700
     33 H04A         2.0690     0.3650     4.3930 hc         1 4NE       0.053700
     34 H05          2.2800     2.4990     5.6250 hc         1 4NE       0.046367
     35 H05A         2.2800     3.3830     4.0930 hc         1 4NE       0.046367
     36 H05B         0.8360     2.4980     4.6030 hc         1 4NE       0.046367
     37 H06          2.0700    -2.3730    -0.3480 hc         1 4NE       0.106700
     38 H06A         3.5140    -1.4880    -0.8580 hc         1 4NE       0.106700
     39 H07          0.8380    -1.4890    -2.3020 hc         1 4NE       0.050700
     40 H07A         2.2820    -0.6040    -2.8130 hc         1 4NE       0.050700
     41 H08          2.0710    -3.6230    -2.5120 hc         1 4NE       0.053700
     42 H08A         3.5160    -2.7370    -3.0230 hc         1 4NE       0.053700
     43 H09          2.2830    -1.8530    -4.9760 hc         1 4NE       0.046367
     44 H09A         0.8390    -2.7380    -4.4660 hc         1 4NE       0.046367
     45 H09B         2.2840    -3.6220    -4.9770 hc         1 4NE       0.046367
     46 H11         -0.1480    -2.1350     0.2110 hc         1 4NE       0.050700
     47 H11A        -0.1490    -1.2500     1.7430 hc         1 4NE       0.050700
     48 H12         -2.4020    -0.3660     1.2320 hc         1 4NE       0.053700
     49 H12A        -2.4010    -1.2510    -0.3010 hc         1 4NE       0.053700
     50 H14          2.0670     2.3730    -0.3500 hc         1 4NE       0.106700
     51 H14A         2.0680     1.4880    -1.8810 hc         1 4NE       0.106700
     52 H16          4.1080     2.7390    -2.6020 hc         1 4NE       0.053700
     53 H16A         4.1080     3.6240    -1.0700 hc         1 4NE       0.053700
@<TRIPOS>BOND
     1     1     5 1   
     2     1    14 1   
     3     2    15 1   
     4     3    16 1   
     5     3    17 1   
     6     4    17 1   
     7     5     6 1   
     8     5    10 1   
     9     5    16 1   
    10     6     7 1   
    11     7     8 1   
    12     8     9 1   
    13    10    11 1   
    14    11    12 1   
    15    12    13 1   
    16    14    15 1   
    17     1    18 1   
    18     1    19 1   
    19     2    20 1   
    20     2    21 1   
    21     2    22 1   
    22     3    23 1   
    23     3    24 1   
    24     4    25 1   
    25     4    26 1   
    26     4    27 1   
    27     6    28 1   
    28     6    29 1   
    29     7    30 1   
    30     7    31 1   
    31     8    32 1   
    32     8    33 1   
    33     9    34 1   
    34     9    35 1   
    35     9    36 1   
    36    10    37 1   
    37    10    38 1   
    38    11    39 1   
    39    11    40 1   
    40    12    41 1   
    41    12    42 1   
    42    13    43 1   
    43    13    44 1   
    44    13    45 1   
    45    14    46 1   
    46    14    47 1   
    47    15    48 1   
    48    15    49 1   
    49    16    50 1   
    50    16    51 1   
    51    17    52 1   
    52    17    53 1   
@<TRIPOS>SUBSTRUCTURE
     1 4NE         1 TEMP              0 ****  ****    0 ROOT
