@<TRIPOS>MOLECULE
4NF
   18    18     1     0     0
SMALL
bcc


@<TRIPOS>ATOM
      1 N2           0.0000     0.0000     0.0000 ns         1 4NF       0.111900
      2 S2           2.1470    -0.1310     1.3790 s          1 4NF      -0.507400
      3 C4           1.3480     0.0000     0.0000 cs         1 4NF       0.247200
      4 O4          -2.4540     0.7160     5.8040 o          1 4NF      -0.447500
      5 C5          -0.7000     0.0000     1.2110 ca         1 4NF      -0.091400
      6 C6          -0.2800     0.8130     2.2560 ca         1 4NF      -0.103500
      7 C7          -0.9740     0.8120     3.4510 ca         1 4NF      -0.003500
      8 C8          -2.0840     0.0020     3.6060 ca         1 4NF      -0.442200
      9 C9          -2.5030    -0.8090     2.5680 ca         1 4NF      -0.003500
     10 C10         -1.8180    -0.8080     1.3690 ca         1 4NF      -0.103500
     11 N3          -2.8230     0.0030     4.8890 no         1 4NF       1.047200
     12 O3          -3.8010    -0.7100     5.0270 o          1 4NF      -0.447500
     13 H1          -0.5000     0.0200    -0.8670 hn         1 4NF       0.161500
     14 H3           1.8890     0.0730    -0.9350 h5         1 4NF       0.039200
     15 H5           0.5890     1.4480     2.1340 ha         1 4NF       0.135000
     16 H6          -0.6480     1.4460     4.2670 ha         1 4NF       0.136500
     17 H7          -3.3740    -1.4410     2.6930 ha         1 4NF       0.136500
     18 H8          -2.1460    -1.4440     0.5560 ha         1 4NF       0.135000
@<TRIPOS>BOND
     1     1     3 1   
     2     1     5 1   
     3     1    13 1   
     4     2     3 2   
     5     3    14 1   
     6     4    11 1   
     7     5     6 ar  
     8     5    10 ar  
     9     6     7 ar  
    10     6    15 1   
    11     7     8 ar  
    12     7    16 1   
    13     8     9 ar  
    14     8    11 1   
    15     9    10 ar  
    16     9    17 1   
    17    10    18 1   
    18    11    12 1   
@<TRIPOS>SUBSTRUCTURE
     1 4NF         1 TEMP              0 ****  ****    0 ROOT
