@<TRIPOS>MOLECULE
molecule
   18    18     1     0     0
SMALL
bcc


@<TRIPOS>ATOM
      1 CAA          0.0000     0.0000     0.0000 c          1 4NG       0.741500
      2 CAC          0.6380    -0.6350     2.1400 c3         1 4NG       0.304500
      3 CAD          1.8910     0.0000     1.4980 c3         1 4NG      -0.055400
      4 CAE          1.5130     0.0000     0.0000 c3         1 4NG      -0.252900
      5 NAB         -0.4630    -0.3550     1.2110 n          1 4NG      -0.396300
      6 OAF         -1.8350    -0.4440     1.5480 oh         1 4NG      -0.410100
      7 OAG         -0.6950     0.2830    -0.9530 o          1 4NG      -0.600500
      8 OAH          0.8180    -2.0450     2.2860 oh         1 4NG      -0.632800
      9 PAI          2.1500     1.5000    -0.8190 p5         1 4NG       1.018700
     10 H1           0.4400    -0.1770     3.1020 h2         1 4NG       0.017700
     11 H2           2.7670    -0.6130     1.6740 hc         1 4NG       0.067200
     12 H3           2.0380     1.0110     1.8590 hc         1 4NG       0.067200
     13 H4           1.8890    -0.8930    -0.4840 hc         1 4NG       0.071700
     14 H5          -2.2200    -1.1820     1.1060 ho         1 4NG       0.371000
     15 H6           0.7710    -2.2760     3.1990 ho         1 4NG       0.372000
     16 OAJ          1.5950     2.8040    -0.0580 o          1 4NG      -0.894167
     17 OAK          3.6290     1.4940    -0.7760 o          1 4NG      -0.894167
     18 OAL          1.6580     1.5240    -2.3520 o          1 4NG      -0.894167
@<TRIPOS>BOND
     1     7     1 2   
     2     1     4 1   
     3     1     5 1   
     4     4     3 1   
     5     4     9 1   
     6    17     9 1   
     7     3     2 1   
     8     5     6 1   
     9     5     2 1   
    10     9    18 1   
    11     9    16 1   
    12     8     2 1   
    13     2    10 1   
    14     3    11 1   
    15     3    12 1   
    16     4    13 1   
    17     6    14 1   
    18     8    15 1   
@<TRIPOS>SUBSTRUCTURE
     1 4NG         1 TEMP              0 ****  ****    0 ROOT
