@<TRIPOS>MOLECULE
4NH
   51    56     1     0     0
SMALL
bcc


@<TRIPOS>ATOM
      1 C1           0.0000     0.0000     0.0000 c3         1 4NH      -0.184000
      2 C2           1.5300     0.0000     0.0000 c3         1 4NH      -0.150000
      3 C3           2.0420     0.0000     1.4430 c3         1 4NH      -0.002000
      4 N1           1.5660     1.2040     2.1300 n3         1 4NH      -0.553000
      5 C4           1.9770     2.5320     1.6700 c3         1 4NH      -0.266000
      6 C5           1.4600     2.7630     0.2480 DU         1 4NH      -0.219000
      7 S1           2.1370     1.4860    -0.8490 s4         1 4NH       0.073000
      8 S2           0.5570     1.0620     3.4350 s6         1 4NH       2.384000
      9 O1           0.6550     2.2950     4.1350 o          1 4NH      -0.836000
     10 O2           0.8200    -0.2210     3.9880 o          1 4NH      -0.836000
     11 C6          -1.0920     0.9890     2.8210 ca         1 4NH      -0.615000
     12 C7          -1.6550     2.1020     2.2230 ca         1 4NH       0.071000
     13 C8          -2.9470     2.0460     1.7350 ca         1 4NH      -0.197000
     14 C9          -3.6830     0.8770     1.8560 ca         1 4NH       0.046000
     15 C10         -3.1180    -0.2360     2.4610 ca         1 4NH      -0.197000
     16 C11         -1.8250    -0.1770     2.9420 ca         1 4NH       0.071000
     17 O3          -4.9550     0.8210     1.3810 os         1 4NH      -0.186000
     18 C12         -5.2440     2.1040     0.8240 c3         1 4NH       0.130000
     19 C13         -6.6170     2.1100     0.2900 c2         1 4NH       0.220000
     20 C14         -7.7180     2.1150    -0.1160 c1         1 4NH      -0.621000
     21 C15         -9.0550     1.8000    -0.9220 c3         1 4NH       0.071000
     22 N2          -9.5830     2.9360    -0.5190 nz         1 4NH       0.215000
     23 C16          1.5280    -1.2220     2.1590 c2         1 4NH       0.255000
     24 O4           0.3500    -1.5090     2.1000 o          1 4NH      -0.434000
     25 N3           2.3760    -1.9960     2.8640 ns         1 4NH       0.209000
     26 O5           1.8930    -3.1450     3.5370 oh         1 4NH      -0.338000
     27 C17          2.0420    -1.2470    -0.7230 c3         1 4NH      -0.184000
     28 H11A        -0.2680     0.1490     1.0390 hc         1 4NH       0.084167
     29 H12          0.1600    -1.0710     0.0220 hc         1 4NH       0.084167
     30 H13         -0.3570     0.6080    -0.8230 hc         1 4NH       0.084167
     31 H3           3.1250    -0.0070     1.4400 h1         1 4NH       0.100000
     32 H41          1.1040     2.5770     1.0310 DU         1 4NH       0.171000
     33 H42          1.5100     2.9690     2.5450 h1         1 4NH       0.137000
     34 H51          1.4740     2.0110    -0.5320 DU         1 4NH       0.095000
     35 H52          1.6520     3.8270     0.1800 ha         1 4NH       0.128000
     36 H7          -1.2270     2.9940     1.7820 ha         1 4NH       0.153500
     37 H8          -3.5420     2.4540     0.9270 ha         1 4NH       0.128500
     38 H10         -3.8640    -0.9720     2.7360 ha         1 4NH       0.128500
     39 H11         -1.1790    -1.0130     3.1850 ha         1 4NH       0.153500
     40 H121        -4.3900     2.0800     0.1580 h1         1 4NH       0.131000
     41 H122        -5.9870     1.7890     0.1000 DU         1 4NH       0.033000
     42 H151        -9.5770     0.9230    -0.5590 hx         1 4NH       0.133500
     43 H152        -8.5160     1.8530    -1.8590 hx         1 4NH       0.133500
     44 HN21        -9.5000     3.3830     0.3720 DU         1 4NH       0.249000
     45 HN22        -9.5710     3.7210    -1.1400 hn         1 4NH       0.136000
     46 HN3          3.3490    -2.1820     3.0100 hn         1 4NH       0.091000
     47 HO5          2.1790    -4.0380     3.4400 ho         1 4NH       0.218000
     48 H171         3.0620    -1.5340    -0.5020 hc         1 4NH       0.084167
     49 H172         2.0150    -1.4390    -1.7890 hc         1 4NH       0.084167
     50 H173         1.5470    -2.0040    -0.1260 hc         1 4NH       0.084167
     51 H23         -9.5540     2.8250     0.4750 DU         1 4NH       0.249000
@<TRIPOS>BOND
     1     1     2 1   
     2     1    28 1   
     3     1    29 1   
     4     1    30 1   
     5     2     3 1   
     6     2     7 1   
     7     2    27 1   
     8     3     4 1   
     9     3    23 1   
    10     3    31 1   
    11     4     5 1   
    12     4     8 1   
    13     5     6 1   
    14     5    32 1   
    15     5    33 1   
    16     6     7 1   
    17     6    32 1   
    18     6    34 1   
    19     6    35 1   
    20     7    34 1   
    21     8     9 1   
    22     8    10 1   
    23     8    11 1   
    24    11    12 1   
    25    11    16 1   
    26    12    13 1   
    27    12    36 1   
    28    13    14 1   
    29    13    37 1   
    30    14    15 1   
    31    14    17 1   
    32    15    16 1   
    33    15    38 1   
    34    16    39 1   
    35    17    18 1   
    36    18    19 1   
    37    18    40 1   
    38    18    41 1   
    39    19    20 1   
    40    19    41 1   
    41    20    21 1   
    42    21    22 1   
    43    21    42 1   
    44    21    43 1   
    45    22    44 1   
    46    22    45 1   
    47    22    51 1   
    48    23    24 1   
    49    23    25 1   
    50    25    26 1   
    51    25    46 1   
    52    26    47 1   
    53    27    48 1   
    54    27    49 1   
    55    27    50 1   
    56    44    51 1   
@<TRIPOS>SUBSTRUCTURE
     1 4NH         1 TEMP              0 ****  ****    0 ROOT
