@<TRIPOS>MOLECULE
molecule
   15    14     1     0     0
SMALL
bcc


@<TRIPOS>ATOM
      1 C1           0.0000     0.0000     0.0000 c          1 4NI       0.893600
      2 C2           1.5070     0.0000     0.0000 c3         1 4NI      -0.184400
      3 C3           2.0170     0.0000     1.4430 c3         1 4NI      -0.075400
      4 C4           3.5470    -0.0000     1.4430 c3         1 4NI      -0.081700
      5 O11         -0.6040    -0.0000     1.0460 o          1 4NI      -0.844300
      6 O12         -0.6700     0.0070    -1.1620 o          1 4NI      -0.844300
      7 N5           4.0350    -0.0010     2.8250 no         1 4NI       0.225300
      8 O51          3.5340    -0.7470     3.6470 o          1 4NI      -0.234000
      9 O52          4.9410     0.7450     3.1510 o          1 4NI      -0.234000
     10 H21          1.8690     0.8850    -0.5110 hc         1 4NI       0.030700
     11 H22          1.8690    -0.8850    -0.5110 hc         1 4NI       0.030700
     12 H31          1.6560    -0.8840     1.9540 hc         1 4NI       0.074200
     13 H32          1.6560     0.8850     1.9540 hc         1 4NI       0.074200
     14 H41          3.9080    -0.8850     0.9330 h1         1 4NI       0.084700
     15 H42          3.9080     0.8840     0.9330 h1         1 4NI       0.084700
@<TRIPOS>BOND
     1     1     2 1
     2     1     5 1
     3     1     6 1
     4     2     3 1
     5     3     4 1
     6     4     7 1
     7     7     8 1
     8     7     9 1
     9     2    10 1
    10     2    11 1
    11     3    12 1
    12     3    13 1
    13     4    14 1
    14     4    15 1
@<TRIPOS>SUBSTRUCTURE
     1 4NI         1 TEMP              0 ****  ****    0 ROOT
