@<TRIPOS>MOLECULE
molecule
   55    59     1     0     0
SMALL
bcc


@<TRIPOS>ATOM
      1 C5           1.5290     0.0000     0.0000 c3         1 4NJ      -0.018100
      2 C6           2.0320     0.0390    -1.4200 ca         1 4NJ      -0.091300
      3 C7           2.4090    -1.1320    -2.0520 ca         1 4NJ      -0.105500
      4 C8           2.8700    -1.0970    -3.3550 ca         1 4NJ      -0.128500
      5 C9           2.9550     0.1100    -4.0260 ca         1 4NJ       0.030400
      6 C10          2.5790     1.2810    -3.3930 ca         1 4NJ      -0.128500
      7 C11          2.1120     1.2450    -2.0920 ca         1 4NJ      -0.105500
      8 Cl1          3.5350     0.1530    -5.6610 cl         1 4NJ      -0.108400
      9 C13          0.0000     0.0000     0.0000 c3         1 4NJ       0.346400
     10 C14         -0.5270     0.0000     1.4180 ce         1 4NJ      -0.044200
     11 C15         -1.2470    -1.1400     1.5540 cf         1 4NJ      -0.160400
     12 C16         -1.2320    -1.8730     0.3520 c          1 4NJ       0.697700
     13 N18         -0.5110    -1.2450    -0.5930 n          1 4NJ      -0.519800
     14 C19         -0.2780    -1.7130    -1.9620 c3         1 4NJ       0.119300
     15 O20         -1.7970    -2.9400     0.1900 o          1 4NJ      -0.626500
     16 O21         -0.4960     1.1320    -0.7170 oh         1 4NJ      -0.584800
     17 C28         -1.9620    -1.5620     2.8110 c3         1 4NJ       0.028100
     18 C37         -1.0670    -2.4680     3.6170 ca         1 4NJ      -0.080300
     19 C38         -1.0250    -3.8230     3.3400 ca         1 4NJ      -0.111000
     20 C39         -0.2050    -4.6540     4.0790 ca         1 4NJ      -0.125500
     21 C40          0.5740    -4.1310     5.0960 ca         1 4NJ       0.027400
     22 C41          0.5330    -2.7760     5.3730 ca         1 4NJ      -0.125500
     23 C42         -0.2850    -1.9450     4.6300 ca         1 4NJ      -0.111000
     24 Cl2          1.6050    -5.1750     6.0240 cl         1 4NJ      -0.114400
     25 C44         -0.3030     1.0250     2.4390 cc         1 4NJ      -0.119200
     26 C45         -1.2800     2.0190     2.9220 ca         1 4NJ      -0.081800
     27 C46         -0.6120     2.7750     3.8970 ca         1 4NJ      -0.036200
     28 C48          0.8500     1.2460     3.1370 cd         1 4NJ      -0.070100
     29 N49          0.6720     2.2780     3.9990 na         1 4NJ      -0.169400
     30 C56         -1.2860     3.8050     4.5440 ca         1 4NJ      -0.134000
     31 C57         -2.6000     4.0750     4.2220 ca         1 4NJ       0.048400
     32 C58         -3.2600     3.3260     3.2580 ca         1 4NJ      -0.142000
     33 C59         -2.6070     2.3020     2.6070 ca         1 4NJ      -0.074000
     34 Cl3         -3.4370     5.3620     5.0320 cl         1 4NJ      -0.103400
     35 H1           1.8900     0.8700     0.5350 hc         1 4NJ       0.068700
     36 H2           1.8900    -0.8980     0.4860 hc         1 4NJ       0.068700
     37 H3           2.3420    -2.0770    -1.5260 ha         1 4NJ       0.145000
     38 H4           3.1650    -2.0150    -3.8500 ha         1 4NJ       0.146000
     39 H5           2.6430     2.2260    -3.9190 ha         1 4NJ       0.146000
     40 H6           1.8170     2.1620    -1.5960 ha         1 4NJ       0.145000
     41 H7           0.0760    -0.8890    -2.5700 h1         1 4NJ       0.050367
     42 H8           0.4660    -2.5000    -1.9520 h1         1 4NJ       0.050367
     43 H9          -1.2030    -2.0960    -2.3750 h1         1 4NJ       0.050367
     44 H10         -1.4350     1.0740    -0.7850 ho         1 4NJ       0.417000
     45 H11         -2.8700    -2.0920     2.5500 hc         1 4NJ       0.070700
     46 H12         -2.2100    -0.6860     3.3980 hc         1 4NJ       0.070700
     47 H13         -1.6350    -4.2320     2.5440 ha         1 4NJ       0.147500
     48 H14         -0.1720    -5.7150     3.8630 ha         1 4NJ       0.143000
     49 H15          1.1440    -2.3670     6.1680 ha         1 4NJ       0.143000
     50 H16         -0.3180    -0.8840     4.8460 ha         1 4NJ       0.147500
     51 H17          1.7670     0.6820     3.0200 h4         1 4NJ       0.176000
     52 H18          1.3720     2.6300     4.6210 hn         1 4NJ       0.303700
     53 H19         -0.7800     4.3960     5.2980 ha         1 4NJ       0.143000
     54 H20         -4.2920     3.5480     3.0150 ha         1 4NJ       0.148000
     55 H21         -3.1250     1.7180     1.8550 ha         1 4NJ       0.140000
@<TRIPOS>BOND
     1    34    31 1
     2    31    30 ar
     3    31    32 ar
     4    30    27 ar
     5    32    33 ar
     6    27    26 ar
     7    27    29 1
     8    33    26 ar
     9    26    25 1
    10    29    28 1
    11    25    28 2
    12    25    10 1
    13    16     9 1
    14    10     9 1
    15    10    11 2
    16    17    11 1
    17    17    18 1
    18     9     1 1
    19     9    13 1
    20    11    12 1
    21     1     2 1
    22    19    18 ar
    23    19    20 ar
    24    18    23 ar
    25     3     2 ar
    26     3     4 ar
    27    13    12 1
    28    13    14 1
    29    12    15 2
    30    20    21 ar
    31     2     7 ar
    32     4     5 ar
    33    23    22 ar
    34    21    22 ar
    35    21    24 1
    36     7     6 ar
    37     5     6 ar
    38     5     8 1
    39     1    35 1
    40     1    36 1
    41     3    37 1
    42     4    38 1
    43     6    39 1
    44     7    40 1
    45    14    41 1
    46    14    42 1
    47    14    43 1
    48    16    44 1
    49    17    45 1
    50    17    46 1
    51    19    47 1
    52    20    48 1
    53    22    49 1
    54    23    50 1
    55    28    51 1
    56    29    52 1
    57    30    53 1
    58    32    54 1
    59    33    55 1
@<TRIPOS>SUBSTRUCTURE
     1 4NJ         1 TEMP              0 ****  ****    0 ROOT
