@<TRIPOS>MOLECULE
4NJ
   55    59     1     0     0
SMALL
bcc


@<TRIPOS>ATOM
      1 C5           1.5290     0.0000     0.0000 c3         1 4NJ       0.027900
      2 C6           2.0320     0.0390    -1.4200 ca         1 4NJ      -0.100300
      3 C7           2.4090    -1.1320    -2.0520 ca         1 4NJ      -0.081000
      4 C8           2.8700    -1.0970    -3.3550 ca         1 4NJ      -0.103000
      5 C9           2.9550     0.1100    -4.0260 ca         1 4NJ      -0.032600
      6 C10          2.5790     1.2810    -3.3930 ca         1 4NJ      -0.103000
      7 C11          2.1120     1.2450    -2.0920 ca         1 4NJ      -0.081000
      8 Cl1          3.5350     0.1530    -5.6610 cl         1 4NJ      -0.026400
      9 C13          0.0000     0.0000     0.0000 c3         1 4NJ       0.274400
     10 C14         -0.5270     0.0000     1.4180 ce         1 4NJ      -0.040200
     11 C15         -1.2470    -1.1400     1.5540 cf         1 4NJ      -0.175400
     12 C16         -1.2320    -1.8730     0.3520 c          1 4NJ       0.634700
     13 N18         -0.5110    -1.2450    -0.5930 n          1 4NJ      -0.198800
     14 C19         -0.2780    -1.7130    -1.9620 c3         1 4NJ       0.095300
     15 O20         -1.7970    -2.9400     0.1900 o          1 4NJ      -0.667500
     16 O21         -0.4960     1.1320    -0.7170 oh         1 4NJ      -0.570800
     17 C28         -1.9620    -1.5620     2.8110 c3         1 4NJ       0.106100
     18 C37         -1.0670    -2.4680     3.6170 ca         1 4NJ      -0.086300
     19 C38         -1.0250    -3.8230     3.3400 ca         1 4NJ      -0.086500
     20 C39         -0.2050    -4.6540     4.0790 ca         1 4NJ      -0.102500
     21 C40          0.5740    -4.1310     5.0960 ca         1 4NJ      -0.035600
     22 C41          0.5330    -2.7760     5.3730 ca         1 4NJ      -0.102500
     23 C42         -0.2850    -1.9450     4.6300 ca         1 4NJ      -0.086500
     24 Cl2          1.6050    -5.1750     6.0240 cl         1 4NJ      -0.034400
     25 C44         -0.3030     1.0250     2.4390 cc         1 4NJ      -0.098200
     26 C45         -1.2800     2.0190     2.9220 ca         1 4NJ      -0.078800
     27 C46         -0.6120     2.7750     3.8970 ca         1 4NJ      -0.226200
     28 C48          0.8500     1.2460     3.1370 cd         1 4NJ      -0.250100
     29 N49          0.6720     2.2780     3.9990 na         1 4NJ       0.377600
     30 C56         -1.2860     3.8050     4.5440 ca         1 4NJ      -0.096000
     31 C57         -2.6000     4.0750     4.2220 ca         1 4NJ      -0.016600
     32 C58         -3.2600     3.3260     3.2580 ca         1 4NJ      -0.121000
     33 C59         -2.6070     2.3020     2.6070 ca         1 4NJ      -0.038000
     34 Cl3         -3.4370     5.3620     5.0320 cl         1 4NJ      -0.027400
     35 H1           1.8900     0.8700     0.5350 hc         1 4NJ       0.037700
     36 H2           1.8900    -0.8980     0.4860 hc         1 4NJ       0.037700
     37 H3           2.3420    -2.0770    -1.5260 ha         1 4NJ       0.118500
     38 H4           3.1650    -2.0150    -3.8500 ha         1 4NJ       0.116500
     39 H5           2.6430     2.2260    -3.9190 ha         1 4NJ       0.116500
     40 H6           1.8170     2.1620    -1.5960 ha         1 4NJ       0.118500
     41 H7           0.0760    -0.8890    -2.5700 h1         1 4NJ       0.021700
     42 H8           0.4660    -2.5000    -1.9520 h1         1 4NJ       0.021700
     43 H9          -1.2030    -2.0960    -2.3750 h1         1 4NJ       0.021700
     44 H10         -1.4350     1.0740    -0.7850 ho         1 4NJ       0.402000
     45 H11         -2.8700    -2.0920     2.5500 hc         1 4NJ       0.034700
     46 H12         -2.2100    -0.6860     3.3980 hc         1 4NJ       0.034700
     47 H13         -1.6350    -4.2320     2.5440 ha         1 4NJ       0.120000
     48 H14         -0.1720    -5.7150     3.8630 ha         1 4NJ       0.113500
     49 H15          1.1440    -2.3670     6.1680 ha         1 4NJ       0.113500
     50 H16         -0.3180    -0.8840     4.8460 ha         1 4NJ       0.120000
     51 H17          1.7670     0.6820     3.0200 h4         1 4NJ       0.148000
     52 H18          1.3720     2.6300     4.6210 hn         1 4NJ       0.117700
     53 H19         -0.7800     4.3960     5.2980 ha         1 4NJ       0.113000
     54 H20         -4.2920     3.5480     3.0150 ha         1 4NJ       0.117000
     55 H21         -3.1250     1.7180     1.8550 ha         1 4NJ       0.106000
@<TRIPOS>BOND
     1     1     2 1   
     2     1     9 1   
     3     1    35 1   
     4     1    36 1   
     5     2     3 ar  
     6     2     7 ar  
     7     3     4 ar  
     8     3    37 1   
     9     4     5 ar  
    10     4    38 1   
    11     5     6 ar  
    12     5     8 1   
    13     6     7 ar  
    14     6    39 1   
    15     7    40 1   
    16     9    10 1   
    17     9    13 1   
    18     9    16 1   
    19    10    11 2   
    20    10    25 1   
    21    11    12 1   
    22    11    17 1   
    23    12    13 1   
    24    12    15 2   
    25    13    14 1   
    26    14    41 1   
    27    14    42 1   
    28    14    43 1   
    29    16    44 1   
    30    17    18 1   
    31    17    45 1   
    32    17    46 1   
    33    18    19 ar  
    34    18    23 ar  
    35    19    20 ar  
    36    19    47 1   
    37    20    21 ar  
    38    20    48 1   
    39    21    22 ar  
    40    21    24 1   
    41    22    23 ar  
    42    22    49 1   
    43    23    50 1   
    44    25    26 1   
    45    25    28 2   
    46    26    27 ar  
    47    26    33 ar  
    48    27    29 1   
    49    27    30 ar  
    50    28    29 1   
    51    28    51 1   
    52    29    52 1   
    53    30    31 ar  
    54    30    53 1   
    55    31    32 ar  
    56    31    34 1   
    57    32    33 ar  
    58    32    54 1   
    59    33    55 1   
@<TRIPOS>SUBSTRUCTURE
     1 4NJ         1 TEMP              0 ****  ****    0 ROOT
