@<TRIPOS>MOLECULE
molecule
   57    57     1     0     0
SMALL
bcc


@<TRIPOS>ATOM
      1 OXT          0.0000     0.0000     0.0000 o          1 4NK      -0.785300
      2 C            1.3420     0.0000     0.0000 c          1 4NK       0.875600
      3 O            1.9460    -0.0010    -1.0460 o          1 4NK      -0.785300
      4 CA           2.0950     0.0000     1.3060 c3         1 4NK      -0.022500
      5 N            3.4680    -0.4730     1.0790 nz         1 4NK      -0.794600
      6 CB           2.1330     1.4210     1.8720 c3         1 4NK      -0.072400
      7 CAN          2.7870     1.4020     3.2550 c3         1 4NK      -0.181400
      8 CAU          2.8240     2.8000     3.8130 c          1 4NK       0.664100
      9 OAE          2.3720     3.7230     3.1680 o          1 4NK      -0.585100
     10 NAS          3.3600     3.0270     5.0290 ns         1 4NK      -0.566900
     11 CBB          3.3960     4.3870     5.5710 c3         1 4NK       0.022700
     12 CAW          4.6210     5.1010     5.0580 c          1 4NK       0.892600
     13 OAK          5.3850     4.5310     4.3160 o          1 4NK      -0.825300
     14 OAG          4.8630     6.3690     5.4260 o          1 4NK      -0.825300
     15 CAQ          3.4460     4.3260     7.1000 c3         1 4NK      -0.050100
     16 SBD          1.9710     3.4680     7.7170 sx         1 4NK       0.238300
     17 OAI          0.8300     4.2930     7.5320 o          1 4NK      -0.519200
     18 CAZ          2.2000     3.4940     9.4640 cc         1 4NK       0.446100
     19 NAR          2.8200     2.5840    10.1640 nc         1 4NK      -0.670000
     20 NAT          1.7680     4.4630    10.2990 na         1 4NK      -0.247900
     21 CAM          2.1480     4.1050    11.5650 cd         1 4NK      -0.278600
     22 CAY          2.8060     2.9360    11.4580 cc         1 4NK       0.273600
     23 CAP          3.4140     2.1540    12.5940 c3         1 4NK      -0.093700
     24 CBC          2.8630     0.7270    12.5840 c3         1 4NK       0.005500
     25 CAX          3.5470    -0.0830    13.6560 c          1 4NK       0.874600
     26 OAL          2.9810    -0.3020    14.7010 o          1 4NK      -0.794800
     27 OAH          4.7840    -0.5610    13.4490 o          1 4NK      -0.794800
     28 NBE          1.4170     0.7580    12.8420 n4         1 4NK      -0.540800
     29 CAB          0.7280     1.3640    11.6940 c3         1 4NK       0.088433
     30 CAC          0.9250    -0.6110    13.0410 c3         1 4NK       0.088433
     31 CAA          1.1510     1.5540    14.0480 c3         1 4NK       0.088433
     32 HA           1.5980    -0.6560     2.0090 hx         1 4NK       0.094700
     33 H2           3.4770    -1.1160     0.3120 hn         1 4NK       0.438467
     34 H3           4.0590     0.3060     0.8680 hn         1 4NK       0.438467
     35 HB2          1.1220     1.8030     1.9560 hc         1 4NK       0.103700
     36 HB1          2.7060     2.0580     1.2100 hc         1 4NK       0.103700
     37 HAO          3.7970     1.0190     3.1720 hc         1 4NK       0.037700
     38 HAN          2.2140     0.7640     3.9170 hc         1 4NK       0.037700
     39 HAS          3.7700     2.2720     5.5440 hn         1 4NK       0.294500
     40 HBB          2.5090     4.9240     5.2590 h1         1 4NK       0.092700
     41 HAQ          4.3330     3.7890     7.4110 h1         1 4NK       0.102200
     42 HB4          3.4730     5.3320     7.5010 h1         1 4NK       0.102200
     43 HAT          1.2600     5.2860    10.0420 hn         1 4NK       0.323700
     44 HAM          1.9610     4.6600    12.4770 h4         1 4NK       0.172000
     45 HB3          3.1650     2.6310    13.5350 hc         1 4NK       0.085700
     46 HAP          4.4910     2.1260    12.4780 hc         1 4NK       0.085700
     47 HBC          3.0470     0.2760    11.6170 hx         1 4NK       0.115700
     48 HAF         -0.2760     0.9630    11.6230 hx         1 4NK       0.089811
     49 HAE          0.6790     2.4380    11.8270 hx         1 4NK       0.089811
     50 HAD          1.2720     1.1370    10.7850 hx         1 4NK       0.089811
     51 HAI          1.0330    -0.8860    14.0840 hx         1 4NK       0.089811
     52 HAH         -0.1200    -0.6640    12.7600 hx         1 4NK       0.089811
     53 HAG          1.4990    -1.2940    12.4270 hx         1 4NK       0.089811
     54 HAA          0.1590     1.3270    14.4190 hx         1 4NK       0.089811
     55 HAC          1.2130     2.6080    13.8060 hx         1 4NK       0.089811
     56 HAB          1.8850     1.3150    14.8080 hx         1 4NK       0.089811
     57 H6           3.8020    -0.9320     1.9030 hn         1 4NK       0.438467
@<TRIPOS>BOND
     1    31    28 1   
     2    26    25 1   
     3    27    25 1   
     4    30    28 1   
     5    25    24 1   
     6    28    24 1   
     7    28    29 1   
     8    24    23 1   
     9    23    22 1   
    10    22    19 1   
    11    22    21 2   
    12    19    18 2   
    13    21    20 1   
    14    17    16 2   
    15    18    20 1   
    16    18    16 1   
    17    16    15 1   
    18    15    11 1   
    19    13    12 1   
    20    12    14 1   
    21    12    11 1   
    22    11    10 1   
    23     9     8 2   
    24    10     8 1   
    25     8     7 1   
    26     3     2 1   
    27     2     1 1   
    28     2     4 1   
    29     4     6 1   
    30     4     5 1   
    31     6     7 1   
    32     4    32 1   
    33     5    33 1   
    34     5    34 1   
    35     6    35 1   
    36     6    36 1   
    37     7    37 1   
    38     7    38 1   
    39    10    39 1   
    40    11    40 1   
    41    15    41 1   
    42    15    42 1   
    43    20    43 1   
    44    21    44 1   
    45    23    45 1   
    46    23    46 1   
    47    24    47 1   
    48    29    48 1   
    49    29    49 1   
    50    29    50 1   
    51    30    51 1   
    52    30    52 1   
    53    30    53 1   
    54    31    54 1   
    55    31    55 1   
    56    31    56 1   
    57     5    57 1   
@<TRIPOS>SUBSTRUCTURE
     1 4NK         1 TEMP              0 ****  ****    0 ROOT
