@<TRIPOS>MOLECULE
molecule
   15    15     1     0     0
SMALL
bcc


@<TRIPOS>ATOM
      1 C2           0.0000     0.0000     0.0000 ca         1 4NL      -0.131000
      2 C6           0.0010     0.0000     2.4160 ca         1 4NL      -0.131000
      3 C3           1.3950     0.0000     0.0000 ca         1 4NL      -0.149000
      4 C4           2.0930     0.0000     1.2070 ca         1 4NL       0.094100
      5 C5           1.3950     0.0000     2.4160 ca         1 4NL      -0.149000
      6 C1          -0.6970     0.0000     1.2080 ca         1 4NL       0.153600
      7 N1          -2.1070     0.0010     1.2090 nv         1 4NL      -0.993200
      8 O1           3.4540     0.0000     1.2070 oh         1 4NL      -0.522100
      9 H2           1.9360    -0.0000    -0.9380 ha         1 4NL       0.140000
     10 H6          -2.6080     0.8680     1.2090 hn         1 4NL       0.427800
     11 H3           1.9370     0.0000     3.3540 ha         1 4NL       0.140000
     12 H5           3.7680    -0.8880     1.2070 ho         1 4NL       0.417000
     13 H4          -0.5410     0.0010     3.3540 ha         1 4NL       0.138000
     14 H1          -0.5420     0.0000    -0.9380 ha         1 4NL       0.138000
     15 H7          -2.6080    -0.8660     1.2100 hn         1 4NL       0.427800
@<TRIPOS>BOND
     1     1     3 ar
     2     1    14 1
     3     1     6 ar
     4     2     5 ar
     5     2     6 ar
     6     2    13 1
     7     3     9 1
     8     3     4 ar
     9     4     8 1
    10     4     5 ar
    11     5    11 1
    12     6     7 1
    13     7    15 1
    14     7    10 1
    15     8    12 1
@<TRIPOS>SUBSTRUCTURE
     1 4NL         1 TEMP              0 ****  ****    0 ROOT
