@<TRIPOS>MOLECULE
molecule
   19    19     1     0     0
SMALL
bcc


@<TRIPOS>ATOM
      1 CAA          0.0000     0.0000     0.0000 c3         1 4NM       0.047000
      2 SAH          1.8060     0.0000     0.0000 sh         1 4NM      -0.381900
      3 CAD         -1.1190    -0.3960     2.1810 ca         1 4NM      -0.117500
      4 CAF         -1.5260     0.0000     3.4520 ca         1 4NM      -0.020000
      5 CAJ         -1.2750     1.2950     3.9240 ca         1 4NM      -0.064400
      6 NAK         -1.7670     1.6290     5.2010 nh         1 4NM       0.390700
      7 OAC         -1.8690     2.7810     5.5700 oh         1 4NM      -0.279300
      8 OAB         -2.1880     0.7550     5.9350 o          1 4NM      -0.212000
      9 CAG         -0.5860     2.2070     3.1090 ca         1 4NM      -0.020000
     10 C1          -0.4340     0.4940     1.3700 ca         1 4NM       0.070700
     11 CAE         -0.1610     1.7930     1.8430 ca         1 4NM      -0.117500
     12 HAA1        -0.3710    -1.0040    -0.1670 h1         1 4NM       0.093700
     13 HAA2        -0.3710     0.6660    -0.7690 h1         1 4NM       0.093700
     14 HAH          2.2480    -0.5250    -1.1360 hs         1 4NM       0.254800
     15 HAD         -1.3220    -1.4020     1.8340 ha         1 4NM       0.189000
     16 HAF         -2.0620    -0.7010     4.0810 ha         1 4NM       0.181500
     17 HAG         -0.3770     3.2100     3.4600 ha         1 4NM       0.181500
     18 HAE          0.3720     2.4900     1.2070 ha         1 4NM       0.189000
     19 HOA         -1.8930     2.8090     6.5120 ho         1 4NM       0.521000
@<TRIPOS>BOND
     1     1     2 1
     2     1    10 1
     3     3     4 ar
     4     3    10 ar
     5     4     5 ar
     6     5     6 1
     7     5     9 ar
     8     6     7 1
     9     6     8 1
    10     9    11 ar
    11    11    10 ar
    12     1    12 1
    13     1    13 1
    14     2    14 1
    15     3    15 1
    16     4    16 1
    17     9    17 1
    18    11    18 1
    19     7    19 1
@<TRIPOS>SUBSTRUCTURE
     1 4NM         1 TEMP              0 ****  ****    0 ROOT
