@<TRIPOS>MOLECULE
4NO
   19    19     1     0     0
SMALL
bcc


@<TRIPOS>ATOM
      1 O16          0.0000     0.0000     0.0000 o          1 4NO      -0.728167
      2 P13          1.6090     0.0000     0.0000 p5         1 4NO       0.457000
      3 O15          2.1480     0.0000     1.5180 o          1 4NO      -0.728167
      4 O14          2.1030    -1.2090    -0.6980 o          1 4NO      -0.728167
      5 C4           2.2150     1.4810    -0.8550 ca         1 4NO       0.036500
      6 C3           2.8340     1.3660    -2.0830 ca         1 4NO      -0.008000
      7 C2           3.2940     2.4940    -2.7370 ca         1 4NO      -0.558200
      8 N1           3.9580     2.3640    -4.0540 no         1 4NO       1.067200
      9 O8           4.0970     1.2640    -4.5590 o          1 4NO      -0.541000
     10 O9           4.3650     3.3550    -4.6320 o          1 4NO      -0.541000
     11 C7           3.1380     3.7450    -2.1660 ca         1 4NO      -0.131000
     12 C6           2.5210     3.8740    -0.9390 ca         1 4NO      -0.155000
     13 C5           2.0490     2.7400    -0.2760 ca         1 4NO       0.025400
     14 C10          1.3820     2.8710     1.0360 c          1 4NO       0.902200
     15 O11          0.8480     1.9060     1.5450 o          1 4NO      -0.837800
     16 O12          1.3660     4.0610     1.6670 o          1 4NO      -0.837800
     17 H3           2.9580     0.3900    -2.5370 ha         1 4NO       0.129000
     18 H4           3.5030     4.6250    -2.6820 ha         1 4NO       0.072000
     19 H5           2.3970     4.8540    -0.4940 ha         1 4NO       0.104000
@<TRIPOS>BOND
     1     1     2 1   
     2     2     3 1   
     3     2     4 1   
     4     2     5 1   
     5     5     6 ar  
     6     5    13 ar  
     7     6     7 ar  
     8     6    17 1   
     9     7     8 1   
    10     7    11 ar  
    11     8     9 1   
    12     8    10 1   
    13    11    12 ar  
    14    11    18 1   
    15    12    13 ar  
    16    12    19 1   
    17    13    14 1   
    18    14    15 1   
    19    14    16 1   
@<TRIPOS>SUBSTRUCTURE
     1 4NO         1 TEMP              0 ****  ****    0 ROOT
