@<TRIPOS>MOLECULE
4NP
   18    18     1     0     0
SMALL
bcc


@<TRIPOS>ATOM
      1 P            0.0000     0.0000     0.0000 p5         1 4NP       0.630900
      2 O1           1.6100     0.0000     0.0000 os         1 4NP      -0.322500
      3 O2          -0.4930     0.0000     1.3960 o          1 4NP      -0.724167
      4 O3          -0.5380    -1.3130    -0.7590 o          1 4NP      -0.724167
      5 O4          -0.5370     1.3160    -0.7580 o          1 4NP      -0.724167
      6 C1           2.0040     1.0650     0.7460 ca         1 4NP       0.352100
      7 C2           2.2090     2.2980     0.1440 ca         1 4NP      -0.176500
      8 C3           2.6040     3.3800     0.9060 ca         1 4NP      -0.017500
      9 C4           2.8040     3.2330     2.2660 ca         1 4NP      -0.579200
     10 C5           2.6040     2.0050     2.8680 ca         1 4NP      -0.017500
     11 C6           2.2040     0.9200     2.1110 ca         1 4NP      -0.176500
     12 N            3.2320     4.3930     3.0790 no         1 4NP       1.079200
     13 O5           3.4080     4.2650     4.2780 o          1 4NP      -0.522500
     14 O6           3.4080     5.4770     2.5500 o          1 4NP      -0.522500
     15 H21          2.0530     2.4130    -0.9220 ha         1 4NP       0.128000
     16 H31          2.7630     4.3440     0.4360 ha         1 4NP       0.094000
     17 H51          2.7610     1.8920     3.9340 ha         1 4NP       0.094000
     18 H61          2.0480    -0.0420     2.5820 ha         1 4NP       0.128000
@<TRIPOS>BOND
     1     1     2 1   
     2     1     3 1   
     3     1     4 1   
     4     1     5 1   
     5     2     6 1   
     6     6     7 ar  
     7     6    11 ar  
     8     7     8 ar  
     9     7    15 1   
    10     8     9 ar  
    11     8    16 1   
    12     9    10 ar  
    13     9    12 1   
    14    10    11 ar  
    15    10    17 1   
    16    11    18 1   
    17    12    13 1   
    18    12    14 1   
@<TRIPOS>SUBSTRUCTURE
     1 4NP         1 TEMP              0 ****  ****    0 ROOT
