@<TRIPOS>MOLECULE
4NR
   28    30     1     0     0
SMALL
bcc


@<TRIPOS>ATOM
      1 CAF          0.0000     0.0000     0.0000 ca         1 4NR      -0.083000
      2 CAD          1.3800     0.0000     0.0000 ca         1 4NR      -0.133000
      3 CAL          2.0760     0.0000     1.1980 ca         1 4NR       0.087900
      4 FAC          3.4270     0.0010     1.1920 f          1 4NR      -0.132900
      5 CAE          1.3910     0.0000     2.4020 ca         1 4NR      -0.133000
      6 CAG          0.0120    -0.0000     2.4130 ca         1 4NR      -0.083000
      7 CAO         -0.6940     0.0000     1.2110 ca         1 4NR       0.011200
      8 CAP         -2.1750     0.0000     1.2170 cc         1 4NR      -0.129400
      9 C5          -3.0630     1.0530     1.7110 cc         1 4NR      -0.329100
     10 C6          -2.8870     2.3140     2.2990 cd         1 4NR       0.657200
     11 NAB         -1.6240     2.8050     2.5230 nv         1 4NR      -0.581500
     12 N1          -3.9570     3.0320     2.6390 nd         1 4NR      -0.761000
     13 C2          -5.1840     2.5880     2.4360 cc         1 4NR       0.462400
     14 NAA         -6.2400     3.3750     2.8070 nv         1 4NR      -0.515500
     15 N3          -5.4320     1.3790     1.8730 na         1 4NR       0.239100
     16 C4          -4.3730     0.5710     1.4910 cc         1 4NR      -0.202300
     17 NAK         -4.2840    -0.6220     0.9340 nd         1 4NR      -0.273600
     18 CAH         -3.0190    -0.9930     0.7500 cd         1 4NR       0.063600
     19 HAF         -0.5430     0.0000    -0.9370 ha         1 4NR       0.112000
     20 HAD          1.9200    -0.0000    -0.9390 ha         1 4NR       0.115500
     21 HAE          1.9400     0.0000     3.3360 ha         1 4NR       0.115500
     22 HAG         -0.5230    -0.0000     3.3550 ha         1 4NR       0.112000
     23 HAH         -2.7000    -1.9220     0.2930 h4         1 4NR       0.129000
     24 HAB1        -0.9920     2.3070     3.1190 hn         1 4NR       0.283800
     25 HAB2        -1.3450     3.6740     2.1130 hn         1 4NR       0.283800
     26 HAA1        -7.1600     3.1670     2.4730 hn         1 4NR       0.282300
     27 HAA2        -6.0900     4.1650     3.4030 hn         1 4NR       0.282300
     28 H3          -6.3750     1.0730     1.7340 hn         1 4NR       0.117700
@<TRIPOS>BOND
     1     1     2 ar  
     2     1     7 ar  
     3     1    19 1   
     4     2     3 ar  
     5     2    20 1   
     6     3     4 1   
     7     3     5 ar  
     8     5     6 ar  
     9     5    21 1   
    10     6     7 ar  
    11     6    22 1   
    12     7     8 1   
    13     8     9 1   
    14     8    18 2   
    15     9    10 2   
    16     9    16 1   
    17    10    11 1   
    18    10    12 1   
    19    11    24 1   
    20    11    25 1   
    21    12    13 2   
    22    13    14 1   
    23    13    15 1   
    24    14    26 1   
    25    14    27 1   
    26    15    16 1   
    27    15    28 1   
    28    16    17 2   
    29    17    18 1   
    30    18    23 1   
@<TRIPOS>SUBSTRUCTURE
     1 4NR         1 TEMP              0 ****  ****    0 ROOT
