@<TRIPOS>MOLECULE
molecule
   28    30     1     0     0
SMALL
bcc


@<TRIPOS>ATOM
      1 CAF          0.0000     0.0000     0.0000 ca         1 4NR      -0.104500
      2 CAD          1.3800     0.0000     0.0000 ca         1 4NR      -0.169000
      3 CAL          2.0760     0.0000     1.1980 ca         1 4NR       0.119900
      4 FAC          3.4270     0.0010     1.1920 f          1 4NR      -0.146900
      5 CAE          1.3910     0.0000     2.4020 ca         1 4NR      -0.169000
      6 CAG          0.0120    -0.0000     2.4130 ca         1 4NR      -0.104500
      7 CAO         -0.6940     0.0000     1.2110 ca         1 4NR      -0.005800
      8 CAP         -2.1750     0.0000     1.2170 cc         1 4NR      -0.131400
      9 C5          -3.0630     1.0530     1.7110 cc         1 4NR      -0.333100
     10 C6          -2.8870     2.3140     2.2990 cd         1 4NR       0.835200
     11 NAB         -1.6240     2.8050     2.5230 nv         1 4NR      -1.039500
     12 N1          -3.9570     3.0320     2.6390 nd         1 4NR      -0.855000
     13 C2          -5.1840     2.5880     2.4360 cc         1 4NR       0.848400
     14 NAA         -6.2400     3.3750     2.8070 nv         1 4NR      -1.003500
     15 N3          -5.4320     1.3790     1.8730 na         1 4NR      -0.319900
     16 C4          -4.3730     0.5710     1.4910 cc         1 4NR       0.020700
     17 NAK         -4.2840    -0.6220     0.9340 nd         1 4NR      -0.361600
     18 CAH         -3.0190    -0.9930     0.7500 cd         1 4NR       0.072600
     19 HAF         -0.5430     0.0000    -0.9370 ha         1 4NR       0.139500
     20 HAD          1.9200    -0.0000    -0.9390 ha         1 4NR       0.141000
     21 HAE          1.9400     0.0000     3.3360 ha         1 4NR       0.141000
     22 HAG         -0.5230    -0.0000     3.3550 ha         1 4NR       0.139500
     23 HAH         -2.7000    -1.9220     0.2930 h4         1 4NR       0.171000
     24 HAB1        -0.9920     2.3070     3.1190 hn         1 4NR       0.449800
     25 HAB2        -1.3450     3.6740     2.1130 hn         1 4NR       0.449800
     26 HAA1        -7.1600     3.1670     2.4730 hn         1 4NR       0.458300
     27 HAA2        -6.0900     4.1650     3.4030 hn         1 4NR       0.458300
     28 H3          -6.3750     1.0730     1.7340 hn         1 4NR       0.298700
@<TRIPOS>BOND
     1     1     2 ar
     2     1     7 ar
     3     2     3 ar
     4     3     4 1
     5     3     5 ar
     6     5     6 ar
     7     6     7 ar
     8     7     8 1
     9     8     9 1
    10     8    18 2
    11     9    10 2
    12     9    16 1
    13    10    11 1
    14    10    12 1
    15    12    13 2
    16    13    14 1
    17    13    15 1
    18    15    16 1
    19    16    17 2
    20    17    18 1
    21     1    19 1
    22     2    20 1
    23     5    21 1
    24     6    22 1
    25    18    23 1
    26    11    24 1
    27    11    25 1
    28    14    26 1
    29    14    27 1
    30    15    28 1
@<TRIPOS>SUBSTRUCTURE
     1 4NR         1 TEMP              0 ****  ****    0 ROOT
