@<TRIPOS>MOLECULE
4NS
   18    18     1     0     0
SMALL
bcc


@<TRIPOS>ATOM
      1 O6           0.0000     0.0000     0.0000 o          1 4NS      -0.480500
      2 N            1.2180     0.0000     0.0000 no         1 4NS       1.066200
      3 O5           1.8260     0.0000     1.0560 o          1 4NS      -0.480500
      4 C4           1.9580    -0.0060    -1.2810 ca         1 4NS      -0.510200
      5 C5           1.2670    -0.0120    -2.4780 ca         1 4NS      -0.003500
      6 C6           1.9550    -0.0180    -3.6750 ca         1 4NS      -0.148500
      7 C3           3.3410    -0.0010    -1.2800 ca         1 4NS      -0.003500
      8 C2           4.0340    -0.0050    -2.4740 ca         1 4NS      -0.148500
      9 C1           3.3420    -0.0180    -3.6760 ca         1 4NS       0.302100
     10 O1           4.0220    -0.0220    -4.8530 os         1 4NS      -0.414800
     11 S            4.3390    -1.4150    -5.3790 s6         1 4NS       1.316300
     12 O2           5.2110    -1.2360    -6.4870 o          1 4NS      -0.663200
     13 O3           4.6730    -2.2050    -4.2470 o          1 4NS      -0.663200
     14 O4           3.0460    -1.9890    -5.9380 o          1 4NS      -0.663200
     15 H5           0.1830    -0.0100    -2.4770 ha         1 4NS       0.116500
     16 H6           1.4130     0.0390    -4.6120 ha         1 4NS       0.130500
     17 H3           3.8810     0.0080    -0.3410 ha         1 4NS       0.116500
     18 H2           5.1150     0.0650    -2.4730 ha         1 4NS       0.130500
@<TRIPOS>BOND
     1     1     2 1   
     2     2     3 1   
     3     2     4 1   
     4     4     5 ar  
     5     4     7 ar  
     6     5     6 ar  
     7     5    15 1   
     8     6     9 ar  
     9     6    16 1   
    10     7     8 ar  
    11     7    17 1   
    12     8     9 ar  
    13     8    18 1   
    14     9    10 1   
    15    10    11 1   
    16    11    12 1   
    17    11    13 1   
    18    11    14 1   
@<TRIPOS>SUBSTRUCTURE
     1 4NS         1 TEMP              0 ****  ****    0 ROOT
