@<TRIPOS>MOLECULE
molecule
   51    55     1     0     0
SMALL
bcc


@<TRIPOS>ATOM
      1 Cl1          0.0000     0.0000     0.0000 cl         1 4NX      -0.110400
      2 C40          1.7360     0.0000     0.0000 ca         1 4NX       0.029400
      3 C39          2.4290     0.0000     1.1980 ca         1 4NX      -0.123500
      4 C38          3.8110     0.0010     1.1970 ca         1 4NX      -0.111500
      5 C41          2.4290    -0.0050    -1.1980 ca         1 4NX      -0.123500
      6 C42          3.8100    -0.0050    -1.1970 ca         1 4NX      -0.111500
      7 C37          4.5020     0.0020    -0.0010 ca         1 4NX      -0.083300
      8 C28          6.0080     0.0030    -0.0010 c3         1 4NX       0.033100
      9 C15          6.5120    -1.4130     0.1130 ce         1 4NX      -0.208400
     10 C16          6.7000    -2.2960    -0.9650 c          1 4NX       0.729800
     11 O20          6.4750    -2.0210    -2.1290 o          1 4NX      -0.559500
     12 O18          7.1600    -3.4880    -0.5380 os         1 4NX      -0.402900
     13 C13          7.2960    -3.4250     0.8870 c3         1 4NX       0.375800
     14 O21          8.6580    -3.6350     1.2630 oh         1 4NX      -0.575800
     15 C5           6.3950    -4.4690     1.5510 c3         1 4NX      -0.021100
     16 C6           6.8100    -5.8480     1.1060 ca         1 4NX      -0.090300
     17 C11          6.2440    -6.4080    -0.0240 ca         1 4NX      -0.098500
     18 C10          6.6280    -7.6700    -0.4360 ca         1 4NX      -0.124500
     19 C7           7.7600    -6.5490     1.8240 ca         1 4NX      -0.098500
     20 C8           8.1420    -7.8130     1.4160 ca         1 4NX      -0.124500
     21 C9           7.5790    -8.3720     0.2830 ca         1 4NX       0.033400
     22 Cl2          8.0620    -9.9580    -0.2340 cl         1 4NX      -0.111400
     23 C14          6.8600    -2.0290     1.2710 cf         1 4NX      -0.023200
     24 C44          6.8200    -1.4590     2.6180 cd         1 4NX      -0.124200
     25 C48          5.8900    -1.7120     3.5870 cc         1 4NX      -0.071100
     26 N49          6.1850    -0.9990     4.7010 na         1 4NX      -0.167400
     27 C46          7.3260    -0.2490     4.5060 ca         1 4NX      -0.036200
     28 C45          7.7810    -0.5020     3.2010 ca         1 4NX      -0.077800
     29 C56          8.0350     0.6320     5.3150 ca         1 4NX      -0.135000
     30 C57          9.1690     1.2500     4.8320 ca         1 4NX       0.050400
     31 Cl3         10.0510     2.3480     5.8480 cl         1 4NX      -0.102400
     32 C58          9.6130     1.0020     3.5410 ca         1 4NX      -0.142000
     33 C59          8.9310     0.1220     2.7280 ca         1 4NX      -0.071000
     34 H1           1.8870    -0.0010     2.1370 ha         1 4NX       0.144000
     35 H2           4.3530     0.0030     2.1350 ha         1 4NX       0.144500
     36 H3           1.8870    -0.0100    -2.1360 ha         1 4NX       0.144000
     37 H4           4.3520    -0.0060    -2.1350 ha         1 4NX       0.144500
     38 H5           6.3690     0.5830     0.8400 hc         1 4NX       0.071700
     39 H6           6.3690     0.4410    -0.9240 hc         1 4NX       0.071700
     40 H7           9.2190    -3.4600     0.5260 ho         1 4NX       0.427000
     41 H8           5.3660    -4.2920     1.2660 hc         1 4NX       0.069700
     42 H9           6.4890    -4.3950     2.6280 hc         1 4NX       0.069700
     43 H10          5.4990    -5.8580    -0.5860 ha         1 4NX       0.142500
     44 H11          6.1860    -8.1090    -1.3230 ha         1 4NX       0.145000
     45 H12          8.2000    -6.1100     2.7120 ha         1 4NX       0.142500
     46 H13          8.8860    -8.3620     1.9790 ha         1 4NX       0.145000
     47 H14          5.0440    -2.3810     3.4800 h4         1 4NX       0.176000
     48 H15          5.6500    -1.0160     5.5470 hn         1 4NX       0.304700
     49 H16          7.6900     0.8430     6.3210 ha         1 4NX       0.143000
     50 H17         10.5050     1.4940     3.1730 ha         1 4NX       0.148000
     51 H18          9.2800    -0.0700     1.7200 ha         1 4NX       0.142000
@<TRIPOS>BOND
     1    22    21 1
     2    18    21 ar
     3    18    17 ar
     4     1     2 1
     5    21    20 ar
     6     3     2 ar
     7     3     4 ar
     8    17    16 ar
     9     2     5 ar
    10    11    10 2
    11     4     7 ar
    12    20    19 ar
    13    16    19 ar
    14    16    15 1
    15     5     6 ar
    16    10    12 1
    17    10     9 1
    18    12    13 1
    19     7     6 ar
    20     7     8 1
    21    15    13 1
    22     9     8 1
    23     9    23 2
    24    13    23 1
    25    13    14 1
    26    23    24 1
    27    24    25 2
    28    24    28 1
    29    25    26 1
    30    26    27 1
    31    28    33 ar
    32    28    27 ar
    33    33    32 ar
    34    27    29 ar
    35    32    30 ar
    36    29    30 ar
    37    30    31 1
    38     3    34 1
    39     4    35 1
    40     5    36 1
    41     6    37 1
    42     8    38 1
    43     8    39 1
    44    14    40 1
    45    15    41 1
    46    15    42 1
    47    17    43 1
    48    18    44 1
    49    19    45 1
    50    20    46 1
    51    25    47 1
    52    26    48 1
    53    29    49 1
    54    32    50 1
    55    33    51 1
@<TRIPOS>SUBSTRUCTURE
     1 4NX         1 TEMP              0 ****  ****    0 ROOT
