@<TRIPOS>MOLECULE
4NY
   46    49     1     0     0
SMALL
bcc


@<TRIPOS>ATOM
      1 C24          0.0000     0.0000     0.0000 c          1 4NY       0.965200
      2 C23         -3.6750    -1.0720    -5.3150 cg         1 4NY       0.219500
      3 C22         -2.7110    -0.9600   -10.9280 ca         1 4NY      -0.075500
      4 C14         -3.1700     4.4180    -7.5500 ca         1 4NY      -0.019000
      5 C15         -3.3900     3.0650    -7.7940 ca         1 4NY      -0.023800
      6 C16         -4.5900     0.4510   -10.0660 c3         1 4NY       0.002600
      7 C17         -3.5050     0.1630   -11.0710 ca         1 4NY      -0.161300
      8 C18         -3.3020     1.0220   -12.1340 ca         1 4NY      -0.075500
      9 C19         -2.3070     0.7600   -13.0560 ca         1 4NY      -0.112000
     10 C20         -1.5110    -0.3650   -12.9140 ca         1 4NY       0.114900
     11 C21         -1.7110    -1.2220   -11.8450 ca         1 4NY      -0.112000
     12 O            1.2150     0.0000     0.0000 o          1 4NY      -0.880300
     13 O1          -0.6730     0.0000     1.1670 o          1 4NY      -0.880300
     14 C1          -0.7370     0.0080    -1.2770 ca         1 4NY      -0.040600
     15 C2          -2.1360     0.0140    -1.2760 ca         1 4NY      -0.060000
     16 C3          -2.8180     0.0260    -2.4590 ca         1 4NY      -0.154500
     17 C4          -2.1190     0.0320    -3.6690 ca         1 4NY      -0.086800
     18 C5          -0.7220     0.0260    -3.6710 ca         1 4NY      -0.154500
     19 C           -0.0380     0.0140    -2.4880 ca         1 4NY      -0.060000
     20 C6          -2.8590     0.0450    -4.9500 ce         1 4NY       0.131100
     21 N1          -4.3190    -1.9670    -5.5880 n1         1 4NY      -0.445800
     22 C7          -2.7620     1.1330    -5.7900 cf         1 4NY      -0.062000
     23 C8          -3.1610     1.8350    -7.0110 cd         1 4NY      -0.057200
     24 C13         -3.5060     5.3480    -8.5110 ca         1 4NY      -0.139000
     25 C12         -4.0610     4.9400    -9.7160 ca         1 4NY       0.005400
     26 Cl          -4.4860     6.1240   -10.9120 cl         1 4NY      -0.050400
     27 C11         -4.2840     3.6020    -9.9700 ca         1 4NY      -0.129000
     28 C10         -3.9460     2.6490    -9.0140 ca         1 4NY      -0.243200
     29 N           -4.0460     1.2740    -8.9820 na         1 4NY       0.392600
     30 C9          -3.5870     0.7890    -7.8000 cc         1 4NY      -0.265100
     31 F           -0.4150    -0.8940   -13.7060 f          1 4NY      -0.163900
     32 H2          -3.1510     4.8350    -6.5510 ha         1 4NY       0.115000
     33 H3          -5.1840     1.1640   -10.6250 h1         1 4NY       0.054200
     34 H4          -4.9980    -0.5400    -9.9090 h1         1 4NY       0.054200
     35 H5          -4.0200     1.8280   -12.0430 ha         1 4NY       0.123500
     36 H6          -2.2850     1.0860   -14.0890 ha         1 4NY       0.124000
     37 H7          -1.2650    -2.1870   -11.6360 ha         1 4NY       0.124000
     38 H9          -2.8770    -0.0440    -0.4880 ha         1 4NY       0.115500
     39 H10         -3.8730    -0.1970    -2.3570 ha         1 4NY       0.097000
     40 H11         -0.0270     0.1320    -4.4950 ha         1 4NY       0.097000
     41 H12          0.9400    -0.0670    -2.9470 ha         1 4NY       0.115500
     42 H13         -2.1730     1.8430    -5.2220 ha         1 4NY       0.076000
     43 H14         -3.3960     6.4250    -8.5160 ha         1 4NY       0.119000
     44 H15         -4.5710     2.8710   -10.7160 ha         1 4NY       0.129000
     45 H16         -3.5760    -0.2940    -7.7890 h4         1 4NY       0.153000
     46 H1          -2.4560    -1.5000   -10.0240 ha         1 4NY       0.123500
@<TRIPOS>BOND
     1     1    12 1   
     2     1    13 1   
     3     1    14 1   
     4     2    20 1   
     5     2    21 3   
     6     3     7 ar  
     7     3    11 ar  
     8     3    46 1   
     9     4     5 ar  
    10     4    24 ar  
    11     4    32 1   
    12     5    23 1   
    13     5    28 ar  
    14     6     7 1   
    15     6    29 1   
    16     6    33 1   
    17     6    34 1   
    18     7     8 ar  
    19     8     9 ar  
    20     8    35 1   
    21     9    10 ar  
    22     9    36 1   
    23    10    11 ar  
    24    10    31 1   
    25    11    37 1   
    26    14    15 ar  
    27    14    19 ar  
    28    15    16 ar  
    29    15    38 1   
    30    16    17 ar  
    31    16    39 1   
    32    17    18 ar  
    33    17    20 1   
    34    18    19 ar  
    35    18    40 1   
    36    19    41 1   
    37    20    22 2   
    38    22    23 1   
    39    22    42 1   
    40    23    30 2   
    41    24    25 ar  
    42    24    43 1   
    43    25    26 1   
    44    25    27 ar  
    45    27    28 ar  
    46    27    44 1   
    47    28    29 1   
    48    29    30 1   
    49    30    45 1   
@<TRIPOS>SUBSTRUCTURE
     1 4NY         1 TEMP              0 ****  ****    0 ROOT
