@<TRIPOS>MOLECULE
molecule
   46    49     1     0     0
SMALL
bcc


@<TRIPOS>ATOM
      1 C24          0.0000     0.0000     0.0000 c          1 4NY       0.875200
      2 C23         -3.6750    -1.0720    -5.3150 cg         1 4NY       0.180500
      3 C22         -2.7110    -0.9600   -10.9280 ca         1 4NY      -0.077000
      4 C14         -3.1700     4.4180    -7.5500 ca         1 4NY      -0.040000
      5 C15         -3.3900     3.0650    -7.7940 ca         1 4NY      -0.049800
      6 C16         -4.5900     0.4510   -10.0660 c3         1 4NY      -0.150400
      7 C17         -3.5050     0.1630   -11.0710 ca         1 4NY      -0.144300
      8 C18         -3.3020     1.0220   -12.1340 ca         1 4NY      -0.077000
      9 C19         -2.3070     0.7600   -13.0560 ca         1 4NY      -0.151500
     10 C20         -1.5110    -0.3650   -12.9140 ca         1 4NY       0.093900
     11 C21         -1.7110    -1.2220   -11.8450 ca         1 4NY      -0.151500
     12 O            1.2150     0.0000     0.0000 o          1 4NY      -0.831800
     13 O1          -0.6730     0.0000     1.1670 o          1 4NY      -0.831800
     14 C1          -0.7370     0.0080    -1.2770 ca         1 4NY      -0.082600
     15 C2          -2.1360     0.0140    -1.2760 ca         1 4NY      -0.122500
     16 C3          -2.8180     0.0260    -2.4590 ca         1 4NY      -0.131500
     17 C4          -2.1190     0.0320    -3.6690 ca         1 4NY      -0.068800
     18 C5          -0.7220     0.0260    -3.6710 ca         1 4NY      -0.131500
     19 C           -0.0380     0.0140    -2.4880 ca         1 4NY      -0.122500
     20 C6          -2.8590     0.0450    -4.9500 ce         1 4NY       0.237100
     21 N1          -4.3060    -1.9690    -5.6110 n1         1 4NY      -0.399800
     22 C7          -2.7620     1.1330    -5.7900 cf         1 4NY      -0.550000
     23 C8          -3.1610     1.8350    -7.0110 cd         1 4NY       0.141800
     24 C13         -3.5060     5.3480    -8.5110 ca         1 4NY      -0.165000
     25 C12         -4.0610     4.9400    -9.7160 ca         1 4NY       0.050400
     26 Cl          -4.4860     6.1240   -10.9120 cl         1 4NY      -0.105400
     27 C11         -4.2840     3.6020    -9.9700 ca         1 4NY      -0.136000
     28 C10         -3.9460     2.6490    -9.0140 ca         1 4NY      -0.040200
     29 N           -4.0460     1.2740    -8.9820 na         1 4NY      -0.083400
     30 C9          -3.5870     0.7890    -7.8000 cc         1 4NY      -0.265100
     31 F           -0.3200    -0.6860   -13.6090 f          1 4NY      -0.156900
     32 H2          -2.4440     4.9720    -6.9670 ha         1 4NY       0.168000
     33 H3          -3.9800     0.4700    -9.1710 h1         1 4NY       0.201700
     34 H4          -5.1690     1.3640   -10.1440 h1         1 4NY       0.201700
     35 H5          -4.1720     1.6500   -12.2840 ha         1 4NY       0.144000
     36 H6          -2.0030     1.4120   -13.8660 ha         1 4NY       0.151500
     37 H7          -1.0310    -2.0500   -12.0090 ha         1 4NY       0.151500
     38 H9          -2.3360     0.4760    -0.3170 ha         1 4NY       0.160500
     39 H10         -3.8960     0.1120    -2.5220 ha         1 4NY       0.115500
     40 H11          0.0510     0.0150    -4.4300 ha         1 4NY       0.115500
     41 H12          0.9650     0.2720    -2.8050 ha         1 4NY       0.160500
     42 H13         -2.5590     1.1180    -6.8540 ha         1 4NY       0.245000
     43 H14         -3.5620     6.4140    -8.3280 ha         1 4NY       0.153000
     44 H15         -4.6340     3.2810   -10.9430 ha         1 4NY       0.147000
     45 H16         -3.4390    -0.2290    -7.4620 h4         1 4NY       0.225000
     46 H1          -2.3320    -1.3290    -9.9820 ha         1 4NY       0.144000
@<TRIPOS>BOND
     1    26    25 1   
     2    11     3 ar  
     3    11    10 ar  
     4    25    27 ar  
     5    25    24 ar  
     6    31    10 1   
     7     3     7 ar  
     8    27    28 ar  
     9    10     9 ar  
    10    24     4 ar  
    11     7     6 1   
    12     7     8 ar  
    13     9     8 ar  
    14    28    29 1   
    15    28     5 ar  
    16     6    29 1   
    17     4     5 ar  
    18    29    30 1   
    19     5    23 1   
    20    30    23 2   
    21    23    22 1   
    22    22    20 2   
    23    20     2 1   
    24    20    17 1   
    25     2    21 3   
    26    16    17 ar  
    27    16    15 ar  
    28    17    18 ar  
    29    15    14 ar  
    30    18    19 ar  
    31    14    19 ar  
    32    14     1 1   
    33     1    12 1   
    34     1    13 1   
    35     3    46 1   
    36     4    32 1   
    37     6    33 1   
    38     6    34 1   
    39     8    35 1   
    40     9    36 1   
    41    11    37 1   
    42    15    38 1   
    43    16    39 1   
    44    18    40 1   
    45    19    41 1   
    46    22    42 1   
    47    24    43 1   
    48    27    44 1   
    49    30    45 1   
@<TRIPOS>SUBSTRUCTURE
     1 4NY         1 TEMP              0 ****  ****    0 ROOT
