@<TRIPOS>MOLECULE
4NZ
   20    20     1     0     0
SMALL
bcc


@<TRIPOS>ATOM
      1 S            0.0000     0.0000     0.0000 sy         1 4NZ       0.941200
      2 C1          -1.3390    -3.9650    -1.7260 ca         1 4NZ      -0.345200
      3 N1           1.6550     0.0000     0.0000 nz         1 4NZ      -0.130500
      4 O1          -0.4020     0.0000     1.3630 o          1 4NZ      -0.486800
      5 C2          -1.1330    -3.8380    -0.3650 ca         1 4NZ      -0.020500
      6 O2          -0.4020     0.9970    -0.9290 o          1 4NZ      -0.486800
      7 C3          -0.7260    -2.6270     0.1620 ca         1 4NZ      -0.002000
      8 C4          -0.5210    -1.5440    -0.6720 ca         1 4NZ      -0.191500
      9 C5          -0.7270    -1.6710    -2.0330 ca         1 4NZ      -0.002000
     10 C6          -1.1350    -2.8820    -2.5600 ca         1 4NZ      -0.020500
     11 O12         -1.9440    -6.2200    -1.5560 o          1 4NZ      -0.406500
     12 O13         -1.9510    -5.3760    -3.4900 o          1 4NZ      -0.406500
     13 HN1          1.9880    -0.1070    -0.9380 hn         1 4NZ       0.315800
     14 HN1A         1.9880    -0.7590     0.5610 hn         1 4NZ       0.315800
     15 H2          -1.2930    -4.6870     0.2890 ha         1 4NZ       0.159500
     16 H3          -0.5650    -2.5270     1.2290 ha         1 4NZ       0.136000
     17 H5          -0.5670    -0.8220    -2.6860 ha         1 4NZ       0.136000
     18 H6          -1.2960    -2.9820    -3.6260 ha         1 4NZ       0.159500
     19 H13          1.9880     0.8580     0.3920 hn         1 4NZ       0.315800
     20 N7          -1.7700    -5.2640    -2.2910 no         1 4NZ       1.017200
@<TRIPOS>BOND
     1     1     3 1   
     2     1     4 2   
     3     1     6 2   
     4     1     8 1   
     5     2     5 ar  
     6     2    10 ar  
     7     2    20 1   
     8     3    13 1   
     9     3    14 1   
    10     3    19 1   
    11     5     7 ar  
    12     5    15 1   
    13     7     8 ar  
    14     7    16 1   
    15     8     9 ar  
    16     9    10 ar  
    17     9    17 1   
    18    10    18 1   
    19    11    20 1   
    20    12    20 1   
@<TRIPOS>SUBSTRUCTURE
     1 4NZ         1 TEMP              0 ****  ****    0 ROOT
