@<TRIPOS>MOLECULE
4O0
   57    62     1     0     0
SMALL
bcc


@<TRIPOS>ATOM
      1 C1           0.0000     0.0000     0.0000 c3         1 4O0      -0.142700
      2 C2           2.2860     0.0000     1.0670 ca         1 4O0      -0.230200
      3 C3           3.1820     0.0000     0.0000 ca         1 4O0       0.096900
      4 C4           4.5400     0.0040     0.2470 ca         1 4O0      -0.052600
      5 N1          -1.1430     1.6650    -1.4290 n          1 4O0       0.024000
      6 C5           5.0230     0.0070     1.5500 ca         1 4O0      -0.117000
      7 C6           4.1600     0.0070     2.6090 ca         1 4O0      -0.027000
      8 C7           2.7820     0.0030     2.3830 ca         1 4O0      -0.037800
      9 C8           1.6060     0.0030     3.2620 cc         1 4O0      -0.008600
     10 C9           0.5210    -0.0010     2.4670 cd         1 4O0      -0.157300
     11 C10         -0.9070    -0.0030     2.9490 c3         1 4O0       0.065100
     12 O1           1.6260     5.2540     8.7510 o          1 4O0      -0.873300
     13 O2           1.6330     3.1190     9.3560 o          1 4O0      -0.873300
     14 C11          1.6150     1.7220     5.4190 ca         1 4O0      -0.016100
     15 C12          1.6080     2.6680     4.4010 ca         1 4O0      -0.122000
     16 C13          1.6060     4.0180     4.7050 ca         1 4O0      -0.145000
     17 C14          1.6130     4.4360     6.0190 ca         1 4O0      -0.040000
     18 C15          1.6200     3.4950     7.0520 ca         1 4O0      -0.129600
     19 C16          1.6150     2.1310     6.7470 ca         1 4O0       0.173900
     20 C17          1.6270     3.9390     8.4600 c          1 4O0       0.972200
     21 C18         -1.5270     3.0000    -1.9020 c3         1 4O0       0.089000
     22 C19         -2.4590     2.7430    -3.0900 cx         1 4O0      -0.087700
     23 C20         -2.5420     1.2430    -3.2110 ca         1 4O0      -0.097300
     24 C21         -1.7540     0.6830    -2.2160 ca         1 4O0      -0.069400
     25 C22         -1.6680    -0.7060    -2.1220 ca         1 4O0      -0.166000
     26 F1           2.7230    -0.0030    -1.2700 f          1 4O0      -0.134900
     27 Cl           5.6560     0.0040    -1.0840 cl         1 4O0      -0.025400
     28 S            1.6160     0.0050     5.0250 ss         1 4O0      -0.288500
     29 F            1.6220     1.2140     7.7390 f          1 4O0      -0.112900
     30 N            0.9110     0.0020     1.1480 na         1 4O0       0.428600
     31 C           -0.3180     1.4210    -0.3900 c          1 4O0       0.561100
     32 O            0.1670     2.3440     0.2280 o          1 4O0      -0.596100
     33 C23         -2.3570    -1.5080    -3.0070 ca         1 4O0      -0.063000
     34 C24         -3.1390    -0.9410    -3.9950 ca         1 4O0      -0.129000
     35 C25         -3.2300     0.4360    -4.0950 ca         1 4O0      -0.050000
     36 C27         -2.4570     3.6480    -4.3160 cx         1 4O0      -0.058400
     37 C26         -3.6610     3.6380    -3.3690 cx         1 4O0      -0.058400
     38 H1           0.4710    -0.5070    -0.8340 h1         1 4O0       0.067700
     39 H2          -0.9150    -0.5150     0.2660 h1         1 4O0       0.067700
     40 H3           6.0910     0.0100     1.7270 ha         1 4O0       0.117000
     41 H4           4.5440     0.0090     3.6220 ha         1 4O0       0.128000
     42 H5          -0.9310    -0.2400     4.0060 hc         1 4O0       0.024033
     43 H6          -1.3440     0.9750     2.7870 hc         1 4O0       0.024033
     44 H7          -1.4720    -0.7470     2.3990 hc         1 4O0       0.024033
     45 H9           1.6050     2.3480     3.3670 ha         1 4O0       0.114000
     46 H10          1.6010     4.7500     3.9060 ha         1 4O0       0.093000
     47 H11          1.6140     5.4940     6.2500 ha         1 4O0       0.132000
     48 H12         -0.6510     3.5500    -2.2240 h1         1 4O0       0.036700
     49 H13         -2.0520     3.5380    -1.1220 h1         1 4O0       0.036700
     50 H14         -1.0570    -1.1580    -1.3500 ha         1 4O0       0.128000
     51 H15         -2.2850    -2.5860    -2.9270 ha         1 4O0       0.103000
     52 H16         -3.6800    -1.5730    -4.6890 ha         1 4O0       0.105000
     53 H17         -3.8430     0.8810    -4.8700 ha         1 4O0       0.102000
     54 H18         -1.8190     4.5210    -4.2510 hc         1 4O0       0.049450
     55 H19         -2.6050     3.1490    -5.2660 hc         1 4O0       0.049450
     56 H20         -4.5440     3.1320    -3.7410 hc         1 4O0       0.049450
     57 H21         -3.7580     4.5050    -2.7270 hc         1 4O0       0.049450
@<TRIPOS>BOND
     1     1    30 1   
     2     1    31 1   
     3     1    38 1   
     4     1    39 1   
     5     2     3 ar  
     6     2     8 ar  
     7     2    30 1   
     8     3     4 ar  
     9     3    26 1   
    10     4     6 ar  
    11     4    27 1   
    12     5    21 1   
    13     5    24 1   
    14     5    31 1   
    15     6     7 ar  
    16     6    40 1   
    17     7     8 ar  
    18     7    41 1   
    19     8     9 1   
    20     9    10 2   
    21     9    28 1   
    22    10    11 1   
    23    10    30 1   
    24    11    42 1   
    25    11    43 1   
    26    11    44 1   
    27    12    20 1   
    28    13    20 1   
    29    14    15 ar  
    30    14    19 ar  
    31    14    28 1   
    32    15    16 ar  
    33    15    45 1   
    34    16    17 ar  
    35    16    46 1   
    36    17    18 ar  
    37    17    47 1   
    38    18    19 ar  
    39    18    20 1   
    40    19    29 1   
    41    21    22 1   
    42    21    48 1   
    43    21    49 1   
    44    22    23 1   
    45    22    36 1   
    46    22    37 1   
    47    23    24 ar  
    48    23    35 ar  
    49    24    25 ar  
    50    25    33 ar  
    51    25    50 1   
    52    31    32 2   
    53    33    34 ar  
    54    33    51 1   
    55    34    35 ar  
    56    34    52 1   
    57    35    53 1   
    58    36    37 1   
    59    36    54 1   
    60    36    55 1   
    61    37    56 1   
    62    37    57 1   
@<TRIPOS>SUBSTRUCTURE
     1 4O0         1 TEMP              0 ****  ****    0 ROOT
