@<TRIPOS>MOLECULE
molecule
   57    62     1     0     0
SMALL
bcc


@<TRIPOS>ATOM
      1 C1           0.0000     0.0000     0.0000 c3         1 4O0      -0.028700
      2 C2           2.2860     0.0000     1.0670 ca         1 4O0      -0.062200
      3 C3           3.1820     0.0000     0.0000 ca         1 4O0       0.116900
      4 C4           4.5400     0.0040     0.2470 ca         1 4O0       0.002400
      5 N1          -1.1430     1.6650    -1.4290 n          1 4O0      -0.373000
      6 C5           5.0230     0.0070     1.5500 ca         1 4O0      -0.134000
      7 C6           4.1600     0.0070     2.6090 ca         1 4O0      -0.069000
      8 C7           2.7820     0.0030     2.3830 ca         1 4O0      -0.044800
      9 C8           1.6060     0.0030     3.2620 cc         1 4O0      -0.048600
     10 C9           0.5210    -0.0010     2.4670 cd         1 4O0       0.020700
     11 C10         -0.9070    -0.0030     2.9490 c3         1 4O0      -0.043900
     12 O1           1.6260     5.2540     8.7510 o          1 4O0      -0.826300
     13 O2           1.6330     3.1190     9.3560 o          1 4O0      -0.826300
     14 C11          1.6150     1.7220     5.4190 ca         1 4O0      -0.061100
     15 C12          1.6080     2.6680     4.4010 ca         1 4O0      -0.131000
     16 C13          1.6060     4.0180     4.7050 ca         1 4O0      -0.168000
     17 C14          1.6130     4.4360     6.0190 ca         1 4O0      -0.072000
     18 C15          1.6200     3.4950     7.0520 ca         1 4O0      -0.132600
     19 C16          1.6150     2.1310     6.7470 ca         1 4O0       0.172900
     20 C17          1.6270     3.9390     8.4600 c          1 4O0       0.882200
     21 C18         -1.5270     3.0000    -1.9020 c3         1 4O0       0.148000
     22 C19         -2.4590     2.7430    -3.0900 cx         1 4O0      -0.099700
     23 C20         -2.5420     1.2430    -3.2110 ca         1 4O0      -0.095300
     24 C21         -1.7540     0.6830    -2.2160 ca         1 4O0       0.065600
     25 C22         -1.6680    -0.7060    -2.1220 ca         1 4O0      -0.183000
     26 F1           2.7230    -0.0030    -1.2700 f          1 4O0      -0.145900
     27 Cl           5.6560     0.0040    -1.0840 cl         1 4O0      -0.107400
     28 S            1.6160     0.0050     5.0250 ss         1 4O0      -0.190500
     29 F            1.6220     1.2140     7.7390 f          1 4O0      -0.114900
     30 N            0.9110     0.0020     1.1480 na         1 4O0      -0.055400
     31 C           -0.3180     1.4210    -0.3900 c          1 4O0       0.648100
     32 O            0.1670     2.3440     0.2280 o          1 4O0      -0.547100
     33 C23         -2.3570    -1.5080    -3.0070 ca         1 4O0      -0.093000
     34 C24         -3.1390    -0.9410    -3.9950 ca         1 4O0      -0.158000
     35 C25         -3.2300     0.4360    -4.0950 ca         1 4O0      -0.083000
     36 C27         -2.4570     3.6480    -4.3160 cx         1 4O0      -0.114900
     37 C26         -3.6610     3.6380    -3.3690 cx         1 4O0      -0.114900
     38 H1           0.4710    -0.5070    -0.8340 h1         1 4O0       0.091200
     39 H2          -0.9150    -0.5150     0.2660 h1         1 4O0       0.091200
     40 H3           6.0910     0.0100     1.7270 ha         1 4O0       0.146000
     41 H4           4.5440     0.0090     3.6220 ha         1 4O0       0.161000
     42 H5          -0.9310    -0.2400     4.0060 hc         1 4O0       0.062033
     43 H6          -1.3440     0.9750     2.7870 hc         1 4O0       0.062033
     44 H7          -1.4720    -0.7470     2.3990 hc         1 4O0       0.062033
     45 H9           1.6050     2.3480     3.3670 ha         1 4O0       0.130000
     46 H10          1.6010     4.7500     3.9060 ha         1 4O0       0.115000
     47 H11          1.6140     5.4940     6.2500 ha         1 4O0       0.160000
     48 H12         -0.6510     3.5500    -2.2240 h1         1 4O0       0.068700
     49 H13         -2.0520     3.5380    -1.1220 h1         1 4O0       0.068700
     50 H14         -1.0570    -1.1580    -1.3500 ha         1 4O0       0.138000
     51 H15         -2.2850    -2.5860    -2.9270 ha         1 4O0       0.134000
     52 H16         -3.6800    -1.5730    -4.6890 ha         1 4O0       0.131000
     53 H17         -3.8430     0.8810    -4.8700 ha         1 4O0       0.129000
     54 H18         -1.8190     4.5210    -4.2510 hc         1 4O0       0.079950
     55 H19         -2.6050     3.1490    -5.2660 hc         1 4O0       0.079950
     56 H20         -4.5440     3.1320    -3.7410 hc         1 4O0       0.079950
     57 H21         -3.7580     4.5050    -2.7270 hc         1 4O0       0.079950
@<TRIPOS>BOND
     1    13    20 1   
     2    20    12 1   
     3    20    18 1   
     4    17    18 ar  
     5    17    16 ar  
     6    18    19 ar  
     7    16    15 ar  
     8    19    29 1   
     9    19    14 ar  
    10    15    14 ar  
    11    33    34 ar  
    12    33    25 ar  
    13    14    28 1   
    14    34    35 ar  
    15    25    24 ar  
    16    32    31 2   
    17    28     9 1   
    18    11    10 1   
    19    35    23 ar  
    20    24    23 ar  
    21    24     5 1   
    22    31     5 1   
    23    31     1 1   
    24    10     9 2   
    25    10    30 1   
    26     9     8 1   
    27    23    22 1   
    28     5    21 1   
    29    30     1 1   
    30    30     2 1   
    31     8     7 ar  
    32     8     2 ar  
    33     7     6 ar  
    34     2     3 ar  
    35    22    21 1   
    36    22    37 1   
    37    22    36 1   
    38     6     4 ar  
    39     3     4 ar  
    40     3    26 1   
    41    37    36 1   
    42     4    27 1   
    43     1    38 1   
    44     1    39 1   
    45     6    40 1   
    46     7    41 1   
    47    11    42 1   
    48    11    43 1   
    49    11    44 1   
    50    15    45 1   
    51    16    46 1   
    52    17    47 1   
    53    21    48 1   
    54    21    49 1   
    55    25    50 1   
    56    33    51 1   
    57    34    52 1   
    58    35    53 1   
    59    36    54 1   
    60    36    55 1   
    61    37    56 1   
    62    37    57 1   
@<TRIPOS>SUBSTRUCTURE
     1 4O0         1 TEMP              0 ****  ****    0 ROOT
