@<TRIPOS>MOLECULE
molecule
   70    73     1     0     0
SMALL
bcc


@<TRIPOS>ATOM
      1 C01          0.0000     0.0000     0.0000 c3         1 4O1      -0.100100
      2 C02          1.5300     0.0000     0.0000 c3         1 4O1       0.057700
      3 N01          2.0180    -1.1960    -0.6900 n          1 4O1      -0.488800
      4 C03          2.8660    -1.1720    -1.8890 c3         1 4O1       0.095000
      5 C04          2.7610    -2.5890    -2.4960 c3         1 4O1      -0.101400
      6 C05          2.4040    -3.4390    -1.2540 c3         1 4O1       0.144500
      7 N02          1.4680    -4.5050    -1.6140 n3         1 4O1      -0.769500
      8 C06          0.2150    -4.1800    -2.2990 c3         1 4O1       0.178800
      9 C07          0.4480    -4.1540    -3.7880 c          1 4O1       0.451100
     10 N03         -0.5370    -3.7560    -4.6170 nz         1 4O1      -0.684400
     11 O01          1.5220    -4.4920    -4.2390 o          1 4O1      -0.378100
     12 S            1.8260    -6.0810    -1.2480 sy         1 4O1       1.412200
     13 O02          1.0830    -6.8830    -2.1550 o          1 4O1      -0.620300
     14 O03          3.2400    -6.1520    -1.1250 o          1 4O1      -0.620300
     15 C08          1.1700    -6.4050     0.3550 ca         1 4O1      -0.303500
     16 C09          1.9600    -6.1720     1.4800 ca         1 4O1      -0.043000
     17 C10          1.4840    -6.4110     2.7330 ca         1 4O1      -0.102000
     18 C11          0.1770    -6.9010     2.8970 ca         1 4O1       0.019000
     19 C12         -0.3490    -7.1610     4.1740 ca         1 4O1      -0.120000
     20 C13         -1.6200    -7.6350     4.2960 ca         1 4O1       0.055400
     21 Cl          -2.2670    -7.9540     5.8750 cl         1 4O1      -0.081400
     22 C14         -2.4090    -7.8690     3.1700 ca         1 4O1      -0.118000
     23 C15         -1.9320    -7.6300     1.9180 ca         1 4O1      -0.100000
     24 C16         -0.6250    -7.1390     1.7530 ca         1 4O1      -0.065000
     25 C17         -0.1010    -6.8750     0.4770 ca         1 4O1      -0.007000
     26 C18          1.7530    -2.4560    -0.3050 c          1 4O1       0.682500
     27 O04          1.0860    -2.7600     0.6610 o          1 4O1      -0.576500
     28 C19          2.0320     0.0000     1.4210 c          1 4O1       0.641100
     29 O1           2.5210    -1.0050     1.8920 o          1 4O1      -0.581100
     30 N04          1.9380     1.1170     2.1690 n          1 4O1      -0.480800
     31 C20          1.2320     2.2880     1.6110 c3         1 4O1       0.089000
     32 C21          0.3410     2.9600     2.6710 c3         1 4O1      -0.097400
     33 C22         -0.3390     1.9000     3.5080 c3         1 4O1       0.181800
     34 N1           0.4810     1.6230     4.6880 n3         1 4O1      -0.761600
     35 C23         -0.3600     1.3310     5.8560 c3         1 4O1       0.161100
     36 C24          1.4920     0.6470     4.5330 c3         1 4O1       0.161800
     37 C1           2.5280     1.1220     3.4930 c3         1 4O1       0.110000
     38 H1          -0.3610    -0.7110    -0.7330 hc         1 4O1       0.049367
     39 H2          -0.3610    -0.2800     0.9820 hc         1 4O1       0.049367
     40 H3          -0.3610     0.9910    -0.2490 hc         1 4O1       0.049367
     41 H4           1.8920     0.8850    -0.5110 h1         1 4O1       0.077700
     42 H5           3.8920    -0.9580    -1.6160 h1         1 4O1       0.061200
     43 H6           2.4970    -0.4360    -2.5930 h1         1 4O1       0.061200
     44 H7           3.7100    -2.9000    -2.9150 hc         1 4O1       0.051700
     45 H8           1.9700    -2.6350    -3.2340 hc         1 4O1       0.051700
     46 H9           3.3020    -3.8500    -0.8100 h1         1 4O1       0.145700
     47 H10         -0.5310    -4.9290    -2.0630 h1         1 4O1       0.105200
     48 H11         -0.1340    -3.2080    -1.9710 h1         1 4O1       0.105200
     49 H12         -1.4110    -3.7720    -4.1300 hn         1 4O1       0.477467
     50 H13         -0.3490    -2.8260    -4.9360 hn         1 4O1       0.477467
     51 H14          2.9690    -5.7990     1.3550 ha         1 4O1       0.153000
     52 H15          2.1090    -6.2250     3.5980 ha         1 4O1       0.154000
     53 H16          0.2130    -6.8830     5.0570 ha         1 4O1       0.160000
     54 H17         -3.4170    -8.2460     3.2940 ha         1 4O1       0.153000
     55 H18         -2.5560    -7.8150     1.0520 ha         1 4O1       0.138000
     56 H19         -0.6670    -7.1410    -0.4070 ha         1 4O1       0.137000
     57 H20          0.6140     1.9660     0.7820 h1         1 4O1       0.043200
     58 H21          1.9630     3.0060     1.2580 h1         1 4O1       0.043200
     59 H22          0.9520     3.5850     3.3100 hc         1 4O1       0.064200
     60 H23         -0.4100     3.5640     2.1770 hc         1 4O1       0.064200
     61 H24         -1.3130     2.2570     3.8210 h1         1 4O1       0.036700
     62 H25         -0.4500     0.9940     2.9240 h1         1 4O1       0.036700
     63 H27          0.2710     1.1180     6.7110 h1         1 4O1       0.034367
     64 H28         -0.9860     2.1880     6.0740 h1         1 4O1       0.034367
     65 H29         -0.9850     0.4720     5.6450 h1         1 4O1       0.034367
     66 H30          1.9870     0.4900     5.4840 h1         1 4O1       0.045700
     67 H31          1.0460    -0.2810     4.1970 h1         1 4O1       0.045700
     68 H32          2.8480     2.1270     3.7390 h1         1 4O1       0.070700
     69 H33          3.3810     0.4540     3.5070 h1         1 4O1       0.070700
     70 H033        -0.5840    -4.3770    -5.4010 hn         1 4O1       0.477467
@<TRIPOS>BOND
     1    35    34 1   
     2    36    34 1   
     3    36    37 1   
     4    34    33 1   
     5    37    30 1   
     6    33    32 1   
     7    32    31 1   
     8    30    31 1   
     9    30    28 1   
    10    29    28 2   
    11    28     2 1   
    12    10     9 1   
    13     2     1 1   
    14     2     3 1   
    15     9     8 1   
    16     9    11 2   
    17     3     4 1   
    18     3    26 1   
    19     8     7 1   
    20     4     5 1   
    21    27    26 2   
    22    26     6 1   
    23     5     6 1   
    24     6     7 1   
    25     7    12 1   
    26    16    17 ar  
    27    16    15 ar  
    28    14    12 2   
    29    17    18 ar  
    30    12    15 1   
    31    12    13 2   
    32    15    25 ar  
    33    18    19 ar  
    34    18    24 ar  
    35    19    20 ar  
    36    25    24 ar  
    37    24    23 ar  
    38    20    21 1   
    39    20    22 ar  
    40    23    22 ar  
    41     1    38 1   
    42     1    39 1   
    43     1    40 1   
    44     2    41 1   
    45     4    42 1   
    46     4    43 1   
    47     5    44 1   
    48     5    45 1   
    49     6    46 1   
    50     8    47 1   
    51     8    48 1   
    52    10    49 1   
    53    10    50 1   
    54    16    51 1   
    55    17    52 1   
    56    19    53 1   
    57    22    54 1   
    58    23    55 1   
    59    25    56 1   
    60    31    57 1   
    61    31    58 1   
    62    32    59 1   
    63    32    60 1   
    64    33    61 1   
    65    33    62 1   
    66    35    63 1   
    67    35    64 1   
    68    35    65 1   
    69    36    66 1   
    70    36    67 1   
    71    37    68 1   
    72    37    69 1   
    73    70    10 1   
@<TRIPOS>SUBSTRUCTURE
     1 4O1         1 TEMP              0 ****  ****    0 ROOT
