@<TRIPOS>MOLECULE
4O2
   50    54     1     0     0
SMALL
bcc


@<TRIPOS>ATOM
      1 C1           0.0000     0.0000     0.0000 c3         1 4O2       0.058000
      2 C2           1.5300     0.0000     0.0000 c3         1 4O2      -0.156400
      3 C3           2.0320     0.0000     1.4210 c          1 4O2       0.989600
      4 C4          -0.7410    -1.1150    -2.0960 c          1 4O2       0.623500
      5 C5          -1.2370    -0.6380    -3.4470 c3         1 4O2      -0.093300
      6 C6          -0.2600    -1.0840    -4.5410 c3         1 4O2       0.077800
      7 C7          -1.4490     1.7480    -4.4390 c3         1 4O2       0.195200
      8 C8          -0.8750     1.1040    -5.6860 cc         1 4O2      -0.274300
      9 C10          0.0710    -0.3870    -7.0790 ca         1 4O2      -0.092800
     10 C11          0.6670    -1.4880    -7.6990 ca         1 4O2      -0.032000
     11 C13          0.6590    -0.2170    -9.7510 ca         1 4O2      -0.086000
     12 C14          0.0670     0.8870    -9.1620 ca         1 4O2      -0.119000
     13 C17         -0.1300     4.0030    -7.0670 ca         1 4O2      -0.146300
     14 C19          1.7680     5.1840    -7.9270 ca         1 4O2      -0.127500
     15 C21          1.0710     5.5220    -5.6580 ca         1 4O2      -0.127500
     16 C20          1.9390     5.8010    -6.7000 ca         1 4O2       0.113900
     17 C18          0.7330     4.2860    -8.1090 ca         1 4O2      -0.058500
     18 C22          0.0370     4.6240    -5.8430 ca         1 4O2      -0.058500
     19 N2          -0.7990     1.6740    -6.9280 na         1 4O2       0.422600
     20 N1          -1.1490     0.8340    -3.3300 n          1 4O2      -0.188800
     21 C           -0.7440     1.1110    -2.0880 c          1 4O2       0.638500
     22 O           -0.6190     2.2380    -1.6500 o          1 4O2      -0.700500
     23 C15         -0.2290     0.7950    -7.8040 ca         1 4O2      -0.206200
     24 C12          0.9480    -1.3690    -9.0380 ca         1 4O2      -0.142000
     25 C9          -0.3600    -0.1430    -5.7150 cd         1 4O2      -0.137400
     26 O3          -0.5950    -2.2630    -1.7340 o          1 4O2      -0.617500
     27 N           -0.4890     0.0010    -1.3810 n          1 4O2      -0.117400
     28 O2           3.3510    -0.0000     1.6660 o          1 4O2      -0.899300
     29 O1           1.2470    -0.0020     2.3390 o          1 4O2      -0.899300
     30 H1          -0.3610     0.8840     0.5110 h1         1 4O2       0.051700
     31 H2          -0.3610    -0.8850     0.5100 h1         1 4O2       0.051700
     32 H3           1.8910    -0.8850    -0.5110 hc         1 4O2       0.016700
     33 H4           1.8910     0.8850    -0.5110 hc         1 4O2       0.016700
     34 H5          -2.2500    -0.9670    -3.6450 h1         1 4O2       0.053700
     35 H6           0.7410    -0.9900    -4.1370 hc         1 4O2       0.040200
     36 H7          -0.5830    -2.0600    -4.8820 hc         1 4O2       0.040200
     37 H8          -2.5200     1.8660    -4.5430 h1         1 4O2       0.026700
     38 H9          -0.9770     2.7080    -4.2670 h1         1 4O2       0.026700
     39 H10          0.8970    -2.3920    -7.1490 ha         1 4O2       0.110000
     40 H11          0.9020    -0.1790   -10.8060 ha         1 4O2       0.092000
     41 H12         -0.1540     1.7830    -9.7300 ha         1 4O2       0.103000
     42 H13          2.4450     5.4030    -8.7440 ha         1 4O2       0.123500
     43 H14          1.2030     6.0060    -4.6980 ha         1 4O2       0.123500
     44 H15          0.6000     3.8010    -9.0680 ha         1 4O2       0.115000
     45 H16         -0.6410     4.4040    -5.0270 ha         1 4O2       0.115000
     46 H19          1.4110    -2.2020    -9.5530 ha         1 4O2       0.097000
     47 F            2.9500     6.6800    -6.5210 f          1 4O2      -0.127900
     48 H17         -2.0890     3.2940    -6.6280 h1         1 4O2       0.035200
     49 H18         -1.5760     3.0480    -8.3030 h1         1 4O2       0.035200
     50 C16         -1.2570     3.0240    -7.2680 c3         1 4O2       0.018600
@<TRIPOS>BOND
     1     1     2 1   
     2     1    27 1   
     3     1    30 1   
     4     1    31 1   
     5     2     3 1   
     6     2    32 1   
     7     2    33 1   
     8     3    28 1   
     9     3    29 1   
    10     4     5 1   
    11     4    26 2   
    12     4    27 1   
    13     5     6 1   
    14     5    20 1   
    15     5    34 1   
    16     6    25 1   
    17     6    35 1   
    18     6    36 1   
    19     7     8 1   
    20     7    20 1   
    21     7    37 1   
    22     7    38 1   
    23     8    19 1   
    24     8    25 2   
    25     9    10 ar  
    26     9    23 ar  
    27     9    25 1   
    28    10    24 ar  
    29    10    39 1   
    30    11    12 ar  
    31    11    24 ar  
    32    11    40 1   
    33    12    23 ar  
    34    12    41 1   
    35    13    17 ar  
    36    13    18 ar  
    37    13    50 1   
    38    14    16 ar  
    39    14    17 ar  
    40    14    42 1   
    41    15    16 ar  
    42    15    18 ar  
    43    15    43 1   
    44    16    47 1   
    45    17    44 1   
    46    18    45 1   
    47    19    23 1   
    48    19    50 1   
    49    20    21 1   
    50    21    22 2   
    51    21    27 1   
    52    24    46 1   
    53    48    50 1   
    54    49    50 1   
@<TRIPOS>SUBSTRUCTURE
     1 4O2         1 TEMP              0 ****  ****    0 ROOT
