@<TRIPOS>MOLECULE
4O3
   42    46     1     0     0
SMALL
bcc


@<TRIPOS>ATOM
      1 C15          0.0000     0.0000     0.0000 c3         1 4O3       0.191200
      2 C17          3.6970     0.1110    -0.7120 c          1 4O3       0.613500
      3 O1           1.9720    -0.0660     2.1930 o          1 4O3      -0.703500
      4 C16          2.3170     0.0000     1.0300 c          1 4O3       0.625500
      5 N2           3.5940     0.0830     0.6330 ns         1 4O3      -0.165500
      6 O            4.7140     0.1970    -1.3670 o          1 4O3      -0.610500
      7 C18          2.2790     0.0110    -1.2370 c3         1 4O3      -0.080300
      8 C19          1.9290     1.2830    -2.0200 c3         1 4O3       0.082800
      9 C13          0.4360     1.4910    -1.9940 cc         1 4O3      -0.145400
     10 C8          -0.3560     2.3150    -2.8900 ca         1 4O3      -0.093800
     11 C9          -0.0170     3.1120    -3.9870 ca         1 4O3      -0.038000
     12 C10         -1.0450     3.7690    -4.6170 ca         1 4O3      -0.132000
     13 C11         -2.3590     3.6570    -4.1940 ca         1 4O3      -0.078000
     14 C12         -2.7220     2.8760    -3.1090 ca         1 4O3      -0.113000
     15 C7          -1.6990     2.1960    -2.4510 ca         1 4O3      -0.205200
     16 N1           1.4680     0.0000     0.0000 n          1 4O3      -0.170800
     17 C14         -0.4240     0.9410    -1.1100 cd         1 4O3      -0.285300
     18 N           -1.7010     1.3600    -1.3730 na         1 4O3       0.431600
     19 C6          -2.8900     0.9680    -0.6110 c3         1 4O3       0.016600
     20 C5          -3.1110     1.9480     0.5130 ca         1 4O3      -0.148300
     21 C2          -3.8940     3.0680     0.3090 ca         1 4O3      -0.059000
     22 C1          -4.0970     3.9680     1.3400 ca         1 4O3      -0.127500
     23 C4          -2.5340     1.7220     1.7500 ca         1 4O3      -0.059000
     24 C3          -2.7400     2.6160     2.7830 ca         1 4O3      -0.127500
     25 C           -3.5160     3.7450     2.5760 ca         1 4O3       0.117900
     26 F           -3.7180     4.6200     3.5850 f          1 4O3      -0.124900
     27 H1          -0.3320     0.4250     0.9400 h1         1 4O3       0.040700
     28 H2          -0.3320    -0.9970    -0.2650 h1         1 4O3       0.040700
     29 H3           4.3760     0.1210     1.2570 hn         1 4O3       0.207500
     30 H4           2.1280    -0.8850    -1.8270 h1         1 4O3       0.066700
     31 H5           2.4200     2.1330    -1.5630 hc         1 4O3       0.032200
     32 H6           2.2600     1.1770    -3.0460 hc         1 4O3       0.032200
     33 H7           1.0080     3.2050    -4.3250 ha         1 4O3       0.109000
     34 H8          -0.8220     4.3960    -5.4720 ha         1 4O3       0.101000
     35 H9          -3.1290     4.1990    -4.7290 ha         1 4O3       0.098000
     36 H10         -3.7540     2.7960    -2.7880 ha         1 4O3       0.107000
     37 H11         -2.7460    -0.0240    -0.2020 h1         1 4O3       0.038200
     38 H12         -3.7540     0.9680    -1.2640 h1         1 4O3       0.038200
     39 H13         -4.3480     3.2420    -0.6590 ha         1 4O3       0.113500
     40 H14         -4.7070     4.8480     1.1780 ha         1 4O3       0.123500
     41 H15         -1.9280     0.8390     1.9110 ha         1 4O3       0.113500
     42 H16         -2.2870     2.4400     3.7510 ha         1 4O3       0.123500
@<TRIPOS>BOND
     1     1    16 1   
     2     1    17 1   
     3     1    27 1   
     4     1    28 1   
     5     2     5 1   
     6     2     6 2   
     7     2     7 1   
     8     3     4 2   
     9     4     5 1   
    10     4    16 1   
    11     5    29 1   
    12     7     8 1   
    13     7    16 1   
    14     7    30 1   
    15     8     9 1   
    16     8    31 1   
    17     8    32 1   
    18     9    10 1   
    19     9    17 2   
    20    10    11 ar  
    21    10    15 ar  
    22    11    12 ar  
    23    11    33 1   
    24    12    13 ar  
    25    12    34 1   
    26    13    14 ar  
    27    13    35 1   
    28    14    15 ar  
    29    14    36 1   
    30    15    18 1   
    31    17    18 1   
    32    18    19 1   
    33    19    20 1   
    34    19    37 1   
    35    19    38 1   
    36    20    21 ar  
    37    20    23 ar  
    38    21    22 ar  
    39    21    39 1   
    40    22    25 ar  
    41    22    40 1   
    42    23    24 ar  
    43    23    41 1   
    44    24    25 ar  
    45    24    42 1   
    46    25    26 1   
@<TRIPOS>SUBSTRUCTURE
     1 4O3         1 TEMP              0 ****  ****    0 ROOT
