@<TRIPOS>MOLECULE
molecule
   42    46     1     0     0
SMALL
bcc


@<TRIPOS>ATOM
      1 C15          0.0000     0.0000     0.0000 c3         1 4O3       0.219200
      2 C17          3.6970     0.1110    -0.7120 c          1 4O3       0.699500
      3 O1           1.9720    -0.0660     2.1930 o          1 4O3      -0.652500
      4 C16          2.3170     0.0000     1.0300 c          1 4O3       0.822500
      5 N2           3.5940     0.0830     0.6330 ns         1 4O3      -0.584500
      6 O            4.7140     0.1970    -1.3670 o          1 4O3      -0.574500
      7 C18          2.2790     0.0110    -1.2370 c3         1 4O3       0.003700
      8 C19          1.9290     1.2830    -2.0200 c3         1 4O3       0.002800
      9 C13          0.4360     1.4910    -1.9940 cc         1 4O3      -0.141400
     10 C8          -0.3560     2.3150    -2.8900 ca         1 4O3      -0.097800
     11 C9          -0.0170     3.1120    -3.9870 ca         1 4O3      -0.073000
     12 C10         -1.0450     3.7690    -4.6170 ca         1 4O3      -0.158000
     13 C11         -2.3590     3.6570    -4.1940 ca         1 4O3      -0.104000
     14 C12         -2.7220     2.8760    -3.1090 ca         1 4O3      -0.147000
     15 C7          -1.6990     2.1960    -2.4510 ca         1 4O3      -0.025200
     16 N1           1.4680     0.0000     0.0000 n          1 4O3      -0.506800
     17 C14         -0.4240     0.9410    -1.1100 cd         1 4O3      -0.093300
     18 N           -1.7010     1.3600    -1.3730 na         1 4O3      -0.053400
     19 C6          -2.8900     0.9680    -0.6110 c3         1 4O3       0.099600
     20 C5          -3.1110     1.9480     0.5130 ca         1 4O3      -0.141300
     21 C2          -3.8940     3.0680     0.3090 ca         1 4O3      -0.084000
     22 C1          -4.0970     3.9680     1.3400 ca         1 4O3      -0.165000
     23 C4          -2.5340     1.7220     1.7500 ca         1 4O3      -0.084000
     24 C3          -2.7400     2.6160     2.7830 ca         1 4O3      -0.165000
     25 C           -3.5160     3.7450     2.5760 ca         1 4O3       0.145900
     26 F           -3.7180     4.6200     3.5850 f          1 4O3      -0.136900
     27 H1          -0.3320     0.4250     0.9400 h1         1 4O3       0.077700
     28 H2          -0.3320    -0.9970    -0.2650 h1         1 4O3       0.077700
     29 H3           4.3760     0.1210     1.2570 hn         1 4O3       0.364500
     30 H4           2.1280    -0.8850    -1.8270 h1         1 4O3       0.099700
     31 H5           2.4200     2.1330    -1.5630 hc         1 4O3       0.067700
     32 H6           2.2600     1.1770    -3.0460 hc         1 4O3       0.067700
     33 H7           1.0080     3.2050    -4.3250 ha         1 4O3       0.138000
     34 H8          -0.8220     4.3960    -5.4720 ha         1 4O3       0.128000
     35 H9          -3.1290     4.1990    -4.7290 ha         1 4O3       0.128000
     36 H10         -3.7540     2.7960    -2.7880 ha         1 4O3       0.130000
     37 H11         -2.7460    -0.0240    -0.2020 h1         1 4O3       0.067200
     38 H12         -3.7540     0.9680    -1.2640 h1         1 4O3       0.067200
     39 H13         -4.3480     3.2420    -0.6590 ha         1 4O3       0.138000
     40 H14         -4.7070     4.8480     1.1780 ha         1 4O3       0.151000
     41 H15         -1.9280     0.8390     1.9110 ha         1 4O3       0.138000
     42 H16         -2.2870     2.4400     3.7510 ha         1 4O3       0.151000
@<TRIPOS>BOND
     1    26    25 1
     2    24    25 ar
     3    24    23 ar
     4    25    22 ar
     5    23    20 ar
     6    22    21 ar
     7    20    21 ar
     8    20    19 1
     9    19    18 1
    10     3     4 2
    11     1    16 1
    12     1    17 1
    13    18    17 1
    14    18    15 1
    15     4    16 1
    16     4     5 1
    17    16     7 1
    18    17     9 2
    19    15    14 ar
    20    15    10 ar
    21     5     2 1
    22    14    13 ar
    23     7     2 1
    24     7     8 1
    25     9    10 1
    26     9     8 1
    27     2     6 2
    28    10    11 ar
    29    13    12 ar
    30    11    12 ar
    31     1    27 1
    32     1    28 1
    33     5    29 1
    34     7    30 1
    35     8    31 1
    36     8    32 1
    37    11    33 1
    38    12    34 1
    39    13    35 1
    40    14    36 1
    41    19    37 1
    42    19    38 1
    43    21    39 1
    44    22    40 1
    45    23    41 1
    46    24    42 1
@<TRIPOS>SUBSTRUCTURE
     1 4O3         1 TEMP              0 ****  ****    0 ROOT
