@<TRIPOS>MOLECULE
4O4
   64    67     1     0     0
SMALL
bcc


@<TRIPOS>ATOM
      1 C1           0.0000     0.0000     0.0000 c3         1 4O4       0.016900
      2 C2           1.5300     0.0000     0.0000 c3         1 4O4      -0.119400
      3 C3           2.0330     0.0000     1.4200 c          1 4O4       0.575100
      4 O4           1.2480    -0.0010     2.3390 o          1 4O4      -0.545100
      5 C5           3.5140    -0.0010     1.6960 c3         1 4O4       0.124800
      6 N6           3.7420    -0.0020     3.1430 n3         1 4O4      -0.466500
      7 C7           3.7470    -1.2660     3.8830 c3         1 4O4       0.155700
      8 C8           2.4470    -2.0120     3.6710 c2         1 4O4      -0.232200
      9 C9           2.7580    -3.1550     3.0950 c2         1 4O4      -0.096400
     10 N10          4.1180    -3.2870     2.8840 n          1 4O4      -0.007000
     11 C11          4.7450    -4.4550     2.2620 c3         1 4O4      -0.061300
     12 C12          4.4390    -5.7020     3.0930 c3         1 4O4      -0.009100
     13 C13          4.2020    -4.6350     0.8680 c          1 4O4       0.576100
     14 O14          3.1300    -4.1510     0.5680 o          1 4O4      -0.642100
     15 N15          4.9050    -5.3320    -0.0460 n          1 4O4      -0.142800
     16 C16          4.4490    -5.4270    -1.4420 c3         1 4O4       0.003500
     17 C17          5.6200    -5.0550    -2.3590 c3         1 4O4       0.198900
     18 O18          6.7610    -5.8430    -2.0080 os         1 4O4      -0.402600
     19 C19          7.2410    -5.6190    -0.6800 c3         1 4O4       0.198900
     20 C20          6.1560    -6.0150     0.3220 c3         1 4O4       0.003500
     21 C21          4.7990    -2.2060     3.3250 c          1 4O4       0.602500
     22 O22          5.9970    -2.0250     3.2800 o          1 4O4      -0.627500
     23 S23          3.9950     1.4270     3.9420 sy         1 4O4       1.050200
     24 O24          4.7070     1.1030     5.1290 o          1 4O4      -0.586300
     25 O25          4.4770     2.3490     2.9740 o          1 4O4      -0.586300
     26 C26          2.4170     2.0230     4.4550 ca         1 4O4      -0.140500
     27 C27          1.6900     2.8550     3.6060 ca         1 4O4      -0.008000
     28 C28          0.4690     3.3330     3.9720 ca         1 4O4      -0.107000
     29 C29         -0.0690     2.9830     5.2220 ca         1 4O4       0.014000
     30 C30         -1.3270     3.4560     5.6340 ca         1 4O4      -0.100000
     31 C31         -1.8170     3.0950     6.8530 ca         1 4O4      -0.014600
     32 Cl1         -3.3700     3.6810     7.3580 cl         1 4O4      -0.026400
     33 C33         -1.0870     2.2620     7.7010 ca         1 4O4      -0.111000
     34 C34          0.1340     1.7860     7.3360 ca         1 4O4      -0.057000
     35 C35          0.6710     2.1360     6.0860 ca         1 4O4      -0.074000
     36 C36          1.9270     1.6590     5.6710 ca         1 4O4       0.038000
     37 H1          -0.3610    -0.8370     0.5850 hc         1 4O4       0.007700
     38 H2          -0.3610     0.9250     0.4320 hc         1 4O4       0.007700
     39 H3          -0.3610    -0.0880    -1.0180 hc         1 4O4       0.007700
     40 H4           1.8910     0.8840    -0.5110 hc         1 4O4       0.034200
     41 H5           1.8910    -0.8840    -0.5110 hc         1 4O4       0.034200
     42 H6           3.9620    -0.8850     1.2590 h1         1 4O4       0.053200
     43 H7           3.9630     0.8840     1.2600 h1         1 4O4       0.053200
     44 H8           3.9160    -1.0940     4.9390 h1         1 4O4       0.083700
     45 H9           1.6750    -1.9810     4.4300 ha         1 4O4       0.137000
     46 H10          2.1490    -4.0330     3.2700 h4         1 4O4       0.132000
     47 H11          5.8170    -4.3070     2.2150 h1         1 4O4       0.072700
     48 H12          4.0440    -5.4060     4.0570 hc         1 4O4       0.018033
     49 H13          3.7080    -6.3110     2.5750 hc         1 4O4       0.018033
     50 H14          5.3480    -6.2740     3.2350 hc         1 4O4       0.018033
     51 H15          4.1300    -6.4410    -1.6520 h1         1 4O4       0.039950
     52 H16          3.6280    -4.7390    -1.6040 h1         1 4O4       0.039950
     53 H17          5.8560    -4.0050    -2.2370 h1         1 4O4       0.018200
     54 H18          5.3490    -5.2530    -3.3890 h1         1 4O4       0.018200
     55 H19          7.4820    -4.5710    -0.5550 h1         1 4O4       0.018200
     56 H20          8.1250    -6.2220    -0.5100 h1         1 4O4       0.018200
     57 H21          6.4550    -5.7130     1.3180 h1         1 4O4       0.039950
     58 H22          6.0060    -7.0870     0.2900 h1         1 4O4       0.039950
     59 H23          2.1050     3.1330     2.6450 ha         1 4O4       0.118000
     60 H24         -0.0860     3.9790     3.3020 ha         1 4O4       0.111000
     61 H25         -1.9480     4.0140     4.9440 ha         1 4O4       0.121000
     62 H26         -1.4990     1.9900     8.6650 ha         1 4O4       0.115000
     63 H27          0.6890     1.1400     8.0050 ha         1 4O4       0.109000
     64 H28          2.5500     1.1030     6.3620 ha         1 4O4       0.123000
@<TRIPOS>BOND
     1     1     2 1   
     2     1    37 1   
     3     1    38 1   
     4     1    39 1   
     5     2     3 1   
     6     2    40 1   
     7     2    41 1   
     8     3     4 2   
     9     3     5 1   
    10     5     6 1   
    11     5    42 1   
    12     5    43 1   
    13     6     7 1   
    14     6    23 1   
    15     7     8 1   
    16     7    21 1   
    17     7    44 1   
    18     8     9 2   
    19     8    45 1   
    20     9    10 1   
    21     9    46 1   
    22    10    11 1   
    23    10    21 1   
    24    11    12 1   
    25    11    13 1   
    26    11    47 1   
    27    12    48 1   
    28    12    49 1   
    29    12    50 1   
    30    13    14 2   
    31    13    15 1   
    32    15    16 1   
    33    15    20 1   
    34    16    17 1   
    35    16    51 1   
    36    16    52 1   
    37    17    18 1   
    38    17    53 1   
    39    17    54 1   
    40    18    19 1   
    41    19    20 1   
    42    19    55 1   
    43    19    56 1   
    44    20    57 1   
    45    20    58 1   
    46    21    22 2   
    47    23    24 2   
    48    23    25 2   
    49    23    26 1   
    50    26    27 ar  
    51    26    36 ar  
    52    27    28 ar  
    53    27    59 1   
    54    28    29 ar  
    55    28    60 1   
    56    29    30 ar  
    57    29    35 ar  
    58    30    31 ar  
    59    30    61 1   
    60    31    32 1   
    61    31    33 ar  
    62    33    34 ar  
    63    33    62 1   
    64    34    35 ar  
    65    34    63 1   
    66    35    36 ar  
    67    36    64 1   
@<TRIPOS>SUBSTRUCTURE
     1 4O4         1 TEMP              0 ****  ****    0 ROOT
