@<TRIPOS>MOLECULE
molecule
   64    67     1     0     0
SMALL
bcc


@<TRIPOS>ATOM
      1 C1           0.0000     0.0000     0.0000 c3         1 4O4      -0.080100
      2 C2           1.5300     0.0000     0.0000 c3         1 4O4      -0.182400
      3 C3           2.0330     0.0000     1.4200 c          1 4O4       0.537100
      4 O4           1.2480    -0.0010     2.3390 o          1 4O4      -0.504100
      5 C5           3.5140    -0.0010     1.6960 c3         1 4O4       0.131800
      6 N6           3.7420    -0.0020     3.1430 n3         1 4O4      -0.772500
      7 C7           3.7470    -1.2660     3.8830 c3         1 4O4       0.192700
      8 C8           2.4470    -2.0120     3.6710 c2         1 4O4      -0.253200
      9 C9           2.7580    -3.1550     3.0950 c2         1 4O4       0.008600
     10 N10          4.1180    -3.2870     2.8840 n          1 4O4      -0.389000
     11 C11          4.7450    -4.4550     2.2620 c3         1 4O4       0.038700
     12 C12          4.4390    -5.7020     3.0930 c3         1 4O4      -0.105100
     13 C13          4.2020    -4.6350     0.8680 c          1 4O4       0.650100
     14 O14          3.1300    -4.1510     0.5680 o          1 4O4      -0.600100
     15 N15          4.9050    -5.3320    -0.0460 n          1 4O4      -0.490800
     16 C16          4.4490    -5.4270    -1.4420 c3         1 4O4       0.066000
     17 C17          5.6200    -5.0550    -2.3590 c3         1 4O4       0.119900
     18 O18          6.7610    -5.8430    -2.0080 os         1 4O4      -0.416600
     19 C19          7.2410    -5.6190    -0.6800 c3         1 4O4       0.119900
     20 C20          6.1560    -6.0150     0.3220 c3         1 4O4       0.066000
     21 C21          4.7990    -2.2060     3.3250 c          1 4O4       0.690500
     22 O22          5.9970    -2.0250     3.2800 o          1 4O4      -0.584500
     23 S23          3.9950     1.4270     3.9420 sy         1 4O4       1.425200
     24 O24          4.7070     1.1030     5.1290 o          1 4O4      -0.633300
     25 O25          4.4770     2.3490     2.9740 o          1 4O4      -0.633300
     26 C26          2.4170     2.0230     4.4550 ca         1 4O4      -0.292500
     27 C27          1.6900     2.8550     3.6060 ca         1 4O4      -0.039000
     28 C28          0.4690     3.3330     3.9720 ca         1 4O4      -0.125000
     29 C29         -0.0690     2.9830     5.2220 ca         1 4O4       0.013000
     30 C30         -1.3270     3.4560     5.6340 ca         1 4O4      -0.123000
     31 C31         -1.8170     3.0950     6.8530 ca         1 4O4       0.048400
     32 Cl1         -3.3700     3.6810     7.3580 cl         1 4O4      -0.106400
     33 C33         -1.0870     2.2620     7.7010 ca         1 4O4      -0.132000
     34 C34          0.1340     1.7860     7.3360 ca         1 4O4      -0.090000
     35 C35          0.6710     2.1360     6.0860 ca         1 4O4      -0.064000
     36 C36          1.9270     1.6590     5.6710 ca         1 4O4       0.005000
     37 H1          -0.3610    -0.8370     0.5850 hc         1 4O4       0.041700
     38 H2          -0.3610     0.9250     0.4320 hc         1 4O4       0.041700
     39 H3          -0.3610    -0.0880    -1.0180 hc         1 4O4       0.041700
     40 H4           1.8910     0.8840    -0.5110 hc         1 4O4       0.065700
     41 H5           1.8910    -0.8840    -0.5110 hc         1 4O4       0.065700
     42 H6           3.9620    -0.8850     1.2590 h1         1 4O4       0.090200
     43 H7           3.9630     0.8840     1.2600 h1         1 4O4       0.090200
     44 H8           3.9160    -1.0940     4.9390 h1         1 4O4       0.115700
     45 H9           1.6750    -1.9810     4.4300 ha         1 4O4       0.164000
     46 H10          2.1490    -4.0330     3.2700 h4         1 4O4       0.164000
     47 H11          5.8170    -4.3070     2.2150 h1         1 4O4       0.096700
     48 H12          4.0440    -5.4060     4.0570 hc         1 4O4       0.052700
     49 H13          3.7080    -6.3110     2.5750 hc         1 4O4       0.052700
     50 H14          5.3480    -6.2740     3.2350 hc         1 4O4       0.052700
     51 H15          4.1300    -6.4410    -1.6520 h1         1 4O4       0.065450
     52 H16          3.6280    -4.7390    -1.6040 h1         1 4O4       0.065450
     53 H17          5.8560    -4.0050    -2.2370 h1         1 4O4       0.058450
     54 H18          5.3490    -5.2530    -3.3890 h1         1 4O4       0.058450
     55 H19          7.4820    -4.5710    -0.5550 h1         1 4O4       0.058450
     56 H20          8.1250    -6.2220    -0.5100 h1         1 4O4       0.058450
     57 H21          6.4550    -5.7130     1.3180 h1         1 4O4       0.065450
     58 H22          6.0060    -7.0870     0.2900 h1         1 4O4       0.065450
     59 H23          2.1050     3.1330     2.6450 ha         1 4O4       0.145000
     60 H24         -0.0860     3.9790     3.3020 ha         1 4O4       0.139000
     61 H25         -1.9480     4.0140     4.9440 ha         1 4O4       0.150000
     62 H26         -1.4990     1.9900     8.6650 ha         1 4O4       0.145000
     63 H27          0.6890     1.1400     8.0050 ha         1 4O4       0.141000
     64 H28          2.5500     1.1030     6.3620 ha         1 4O4       0.151000
@<TRIPOS>BOND
     1    19    18 1
     2    19    20 1
     3    18    17 1
     4    20    15 1
     5    17    16 1
     6    15    13 1
     7    15    16 1
     8    14    13 2
     9     1     2 1
    10    13    11 1
    11     2     3 1
    12     3     5 1
    13     3     4 2
    14    11    10 1
    15    11    12 1
    16     5     6 1
    17    10     9 1
    18    10    21 1
    19     9     8 2
    20    21    22 2
    21    21     7 1
    22     8     7 1
    23     6     7 1
    24     6    23 1
    25    25    23 2
    26    27    28 ar
    27    27    26 ar
    28    23    26 1
    29    23    24 2
    30    28    29 ar
    31    26    36 ar
    32    29    30 ar
    33    29    35 ar
    34    36    35 ar
    35    30    31 ar
    36    35    34 ar
    37    31    32 1
    38    31    33 ar
    39    34    33 ar
    40     1    37 1
    41     1    38 1
    42     1    39 1
    43     2    40 1
    44     2    41 1
    45     5    42 1
    46     5    43 1
    47     7    44 1
    48     8    45 1
    49     9    46 1
    50    11    47 1
    51    12    48 1
    52    12    49 1
    53    12    50 1
    54    16    51 1
    55    16    52 1
    56    17    53 1
    57    17    54 1
    58    19    55 1
    59    19    56 1
    60    20    57 1
    61    20    58 1
    62    27    59 1
    63    28    60 1
    64    30    61 1
    65    33    62 1
    66    34    63 1
    67    36    64 1
@<TRIPOS>SUBSTRUCTURE
     1 4O4         1 TEMP              0 ****  ****    0 ROOT
