@<TRIPOS>MOLECULE
molecule
   44    46     1     0     0
SMALL
bcc


@<TRIPOS>ATOM
      1 C1           0.0000     0.0000     0.0000 c3         1 4O5       0.103300
      2 N2           1.4650     0.0000     0.0000 ns         1 4O5      -0.582900
      3 C3           2.1400     0.0000     1.1660 c          1 4O5       0.670700
      4 O4           1.5320    -0.0030     2.2190 o          1 4O5      -0.598100
      5 C5           3.6150     0.0000     1.1650 ca         1 4O5      -0.110600
      6 C6           4.3160    -0.0010     2.3750 ca         1 4O5      -0.079000
      7 C7           5.6940     0.0000     2.3710 ca         1 4O5      -0.105000
      8 C8           6.3870     0.0020     1.1660 ca         1 4O5       0.020600
      9 C9           5.6940     0.0030    -0.0410 ca         1 4O5       0.142900
     10 F10          6.3710     0.0070    -1.2100 f          1 4O5      -0.126900
     11 C11          4.3140    -0.0040    -0.0450 ca         1 4O5      -0.146000
     12 N12          7.7840     0.0050     1.1670 n          1 4O5      -0.318200
     13 C13          8.5640    -1.1390     1.1660 c2         1 4O5      -0.006400
     14 C14          9.8520    -0.8690     1.1670 c2         1 4O5      -0.249200
     15 C15          9.9780     0.6400     1.1690 c3         1 4O5       0.185700
     16 N16         10.6770     1.0970     2.3730 n7         1 4O5      -0.882100
     17 S17         12.3040     1.4060     2.3190 sy         1 4O5       1.414800
     18 O18         12.6690     1.8560     3.6160 o          1 4O5      -0.632800
     19 O19         12.9040     0.2820     1.6900 o          1 4O5      -0.632800
     20 C20         12.5410     2.7710     1.2320 ce         1 4O5      -0.416100
     21 C21         13.0120     3.9220     1.7020 cf         1 4O5       0.095800
     22 C22         13.2100     5.0620     0.7940 cd         1 4O5      -0.051900
     23 C23         13.6810     6.2750     1.1560 cc         1 4O5      -0.111000
     24 C24         13.7790     7.1850     0.1260 cc         1 4O5      -0.158000
     25 C25         13.3940     6.7290    -1.0720 cd         1 4O5       0.078300
     26 Cl26        13.4090     7.6510    -2.5430 cl         1 4O5      -0.046400
     27 S27         12.8770     5.0540    -0.9330 ss         1 4O5      -0.068800
     28 C28          8.5410     1.1200     1.1630 c          1 4O5       0.692500
     29 O29          8.1520     2.2690     1.1590 o          1 4O5      -0.568500
     30 H1          -0.3610    -0.8850     0.5100 h1         1 4O5       0.044700
     31 H2          -0.3610     0.0010    -1.0210 h1         1 4O5       0.044700
     32 H3          -0.3610     0.8840     0.5120 h1         1 4O5       0.044700
     33 H4           1.9640     0.0000    -0.8670 hn         1 4O5       0.314500
     34 H5           3.7770    -0.0030     3.3140 ha         1 4O5       0.169000
     35 H6           6.2370    -0.0010     3.3080 ha         1 4O5       0.152000
     36 H7           3.7740    -0.0030    -0.9840 ha         1 4O5       0.146000
     37 H8           8.2000    -2.0430     1.6380 h4         1 4O5       0.174000
     38 H9          10.5320    -1.4680     0.5730 ha         1 4O5       0.182000
     39 H10         10.4910     0.9770     0.2760 h1         1 4O5       0.093700
     40 H11         10.1780     1.1950     3.2350 hn         1 4O5       0.462800
     41 H12         12.3030     2.6730     0.1800 h4         1 4O5       0.168000
     42 H13         13.2500     4.0200     2.7550 ha         1 4O5       0.166000
     43 H14         13.9590     6.5130     2.1760 ha         1 4O5       0.159000
     44 H15         14.1410     8.1950     0.2750 ha         1 4O5       0.163000
@<TRIPOS>BOND
     1     4     3 2
     2     3     2 1
     3     3     5 1
     4     1     2 1
     5    11     5 ar
     6    11     9 ar
     7     5     6 ar
     8    10     9 1
     9     9     8 ar
    10     6     7 ar
    11     8     7 ar
    12     8    12 1
    13    12    13 1
    14    12    28 1
    15    13    14 2
    16    29    28 2
    17    28    15 1
    18    14    15 1
    19    16    15 1
    20    16    17 1
    21    19    17 2
    22    17    20 1
    23    17    18 2
    24    20    21 2
    25    27    22 1
    26    27    25 1
    27    21    22 1
    28    22    23 2
    29    25    26 1
    30    25    24 2
    31    23    24 1
    32     1    30 1
    33     1    31 1
    34     1    32 1
    35     2    33 1
    36     6    34 1
    37     7    35 1
    38    11    36 1
    39    13    37 1
    40    14    38 1
    41    15    39 1
    42    16    40 1
    43    20    41 1
    44    21    42 1
    45    23    43 1
    46    24    44 1
@<TRIPOS>SUBSTRUCTURE
     1 4O5         1 TEMP              0 ****  ****    0 ROOT
