@<TRIPOS>MOLECULE
molecule
   53    55     1     0     0
SMALL
bcc


@<TRIPOS>ATOM
      1 C01          0.0000     0.0000     0.0000 c3         1 4O6      -0.102100
      2 C05          1.5300     0.0000     0.0000 c3         1 4O6       0.063700
      3 C07          2.0330     0.0000     1.4210 c          1 4O6       0.651100
      4 O08          2.4670    -1.0210     1.9100 o          1 4O6      -0.577100
      5 N09          1.9980     1.1350     2.1470 n          1 4O6      -0.497800
      6 C10          2.5720     1.1850     3.5020 c3         1 4O6       0.068000
      7 C13          3.5090     2.3950     3.5860 c3         1 4O6       0.119400
      8 O16          2.8090     3.5630     3.1500 os         1 4O6      -0.416600
      9 C17          2.3810     3.5140     1.7870 c3         1 4O6       0.119400
     10 C20          1.3920     2.3620     1.6080 c3         1 4O6       0.068000
     11 N23          2.0180    -1.1960    -0.6910 n          1 4O6      -0.489800
     12 C24          2.8650    -1.1720    -1.8890 c3         1 4O6       0.098000
     13 C27          2.7600    -2.5890    -2.4960 c3         1 4O6      -0.099400
     14 C30          2.4030    -3.4380    -1.2540 c3         1 4O6       0.160500
     15 N32          1.4700    -4.5080    -1.6140 n7         1 4O6      -0.894100
     16 S34          1.5670    -5.9800    -0.8620 sy         1 4O6       1.409800
     17 O35          0.5190    -6.7750    -1.4010 o          1 4O6      -0.642300
     18 O36          2.9340    -6.3640    -0.9060 o          1 4O6      -0.642300
     19 C37          1.1740    -5.7240     0.8360 ce         1 4O6      -0.383100
     20 C39          0.0850    -6.2730     1.3550 cf         1 4O6       0.050800
     21 C41         -0.2440    -6.0590     2.7800 ca         1 4O6      -0.090800
     22 C42         -1.3910    -6.6350     3.3280 ca         1 4O6      -0.084500
     23 C44         -1.6920    -6.4320     4.6590 ca         1 4O6      -0.131000
     24 C46         -0.8610    -5.6580     5.4490 ca         1 4O6       0.043400
     25 Cl1         -1.2470    -5.4060     7.1240 cl         1 4O6      -0.111400
     26 C48          0.2790    -5.0850     4.9110 ca         1 4O6      -0.131000
     27 C50          0.5930    -5.2840     3.5830 ca         1 4O6      -0.084500
     28 C52          1.7530    -2.4560    -0.3050 c          1 4O6       0.690500
     29 O53          1.0860    -2.7610     0.6620 o          1 4O6      -0.596500
     30 H1          -0.3610    -0.2780     0.9830 hc         1 4O6       0.053700
     31 H2          -0.3610     0.9900    -0.2500 hc         1 4O6       0.053700
     32 H3          -0.3610    -0.7120    -0.7320 hc         1 4O6       0.053700
     33 H4           1.8910     0.8850    -0.5110 h1         1 4O6       0.066700
     34 H5           3.1330     0.2770     3.6930 h1         1 4O6       0.064700
     35 H6           1.7770     1.2880     4.2300 h1         1 4O6       0.064700
     36 H7           3.8320     2.5300     4.6110 h1         1 4O6       0.055200
     37 H8           4.3690     2.2310     2.9480 h1         1 4O6       0.055200
     38 H9           3.2390     3.3550     1.1450 h1         1 4O6       0.055200
     39 H10          1.8970     4.4480     1.5270 h1         1 4O6       0.055200
     40 H11          0.4780     2.5820     2.1460 h1         1 4O6       0.064700
     41 H12          1.1780     2.2280     0.5550 h1         1 4O6       0.064700
     42 H13          3.8910    -0.9570    -1.6170 h1         1 4O6       0.049200
     43 H14          2.4950    -0.4360    -2.5930 h1         1 4O6       0.049200
     44 H15          1.9680    -2.6350    -3.2340 hc         1 4O6       0.067200
     45 H16          3.7090    -2.9000    -2.9150 hc         1 4O6       0.067200
     46 H17          3.3020    -3.8480    -0.8090 h1         1 4O6       0.107700
     47 H18          0.7970    -4.3600    -2.3400 hn         1 4O6       0.456800
     48 H19          1.8240    -5.1200     1.4570 h4         1 4O6       0.184000
     49 H20         -0.5650    -6.8790     0.7340 ha         1 4O6       0.152000
     50 H21         -2.0420    -7.2410     2.7100 ha         1 4O6       0.148500
     51 H22         -2.5820    -6.8790     5.0860 ha         1 4O6       0.146500
     52 H23          0.9270    -4.4810     5.5350 ha         1 4O6       0.146500
     53 H24          1.4850    -4.8350     3.1630 ha         1 4O6       0.148500
@<TRIPOS>BOND
     1     9     8 1
     2     9    10 1
     3     8     7 1
     4    10     5 1
     5     7     6 1
     6     5     6 1
     7     5     3 1
     8     4     3 2
     9     3     2 1
    10     2     1 1
    11     2    11 1
    12    11    12 1
    13    11    28 1
    14    29    28 2
    15    12    13 1
    16    28    14 1
    17    13    14 1
    18    15    14 1
    19    15    16 1
    20    18    16 2
    21    16    19 1
    22    16    17 2
    23    19    20 2
    24    27    26 ar
    25    27    21 ar
    26    20    21 1
    27    26    24 ar
    28    21    22 ar
    29    24    25 1
    30    24    23 ar
    31    22    23 ar
    32     1    30 1
    33     1    31 1
    34     1    32 1
    35     2    33 1
    36     6    34 1
    37     6    35 1
    38     7    36 1
    39     7    37 1
    40     9    38 1
    41     9    39 1
    42    10    40 1
    43    10    41 1
    44    12    42 1
    45    12    43 1
    46    13    44 1
    47    13    45 1
    48    14    46 1
    49    15    47 1
    50    19    48 1
    51    20    49 1
    52    22    50 1
    53    23    51 1
    54    26    52 1
    55    27    53 1
@<TRIPOS>SUBSTRUCTURE
     1 4O6         1 TEMP              0 ****  ****    0 ROOT
