@<TRIPOS>MOLECULE
4O6
   54    55     1     0     0
SMALL
bcc


@<TRIPOS>ATOM
      1 C01        -0.6240   -0.3480   -0.0950 c3        1 4O6     -0.106100
      2 C05         0.8990   -0.2850   -0.2000 c3        1 4O6      0.049700
      3 C07         1.4830   -0.2240    1.2390 c         1 4O6      0.631100
      4 O08         1.9790   -1.2530    1.7500 o         1 4O6     -0.634100
      5 N09         1.4680    0.9610    1.9390 n         1 4O6     -0.457800
      6 C10         1.9540    0.9910    3.3080 c3        1 4O6      0.053000
      7 C13         2.6690    2.3040    3.6540 c3        1 4O6      0.112400
      8 O16         1.8850    3.4350    3.2960 os        1 4O6     -0.397600
      9 C17         1.5570    3.4430    1.9150 c3        1 4O6      0.112400
     10 C20         0.8020    2.1670    1.5030 c3        1 4O6      0.053000
     11 N23         1.4620   -1.3720   -0.9760 n         1 4O6     -0.416800
     12 C24         2.7730   -1.1710   -1.5890 c3        1 4O6      0.069000
     13 C27         3.3440   -2.5580   -1.9350 c3        1 4O6     -0.115400
     14 C30         2.4350   -3.5720   -1.2100 c3        1 4O6      0.056500
     15 N32         1.9780   -4.7110   -1.9920 n3        1 4O6     -0.986800
     16 S34         0.9120   -6.5580   -0.9100 s4        1 4O6      1.690100
     17 O35        -0.2770   -6.2800   -1.5080 o         1 4O6     -0.450900
     18 O36         1.8150   -7.3990   -1.4900 o         1 4O6     -0.450900
     19 C37         1.0980   -6.2660    0.5740 c2        1 4O6     -0.810300
     20 C39         0.2960   -5.5310    1.4230 ce        1 4O6      0.300800
     21 C41         0.4830   -5.3600    2.8230 ca        1 4O6     -0.191800
     22 C42        -0.3910   -4.4830    3.5130 ca        1 4O6     -0.015500
     23 C44        -0.2540   -4.2710    4.8760 ca        1 4O6     -0.155500
     24 C46         0.7590   -4.9340    5.5870 ca        1 4O6      0.107400
     25 CL1         0.9280   -4.6810    7.2430 cl        1 4O6     -0.013400
     26 C48         1.6330   -5.8100    4.9200 ca        1 4O6     -0.155500
     27 C50         1.4970   -6.0160    3.5560 ca        1 4O6     -0.015500
     28 C52         1.2540   -2.7140   -0.6730 c         1 4O6      0.712500
     29 O53         0.2650   -3.2190   -0.1190 o         1 4O6     -0.649500
     30 H1         -0.9900    0.5530    0.4550 hc        1 4O6      0.064700
     31 H2         -1.0840   -0.3600   -1.1120 hc        1 4O6      0.064700
     32 H3         -0.9480   -1.2670    0.4540 hc        1 4O6      0.064700
     33 H4          1.1910    0.6560   -0.7590 h1        1 4O6      0.084700
     34 H5          1.0740    0.8620    4.0030 h1        1 4O6      0.062700
     35 H6          2.6650    0.1330    3.4720 h1        1 4O6      0.062700
     36 H7          3.6690    2.3600    3.1480 h1        1 4O6      0.065700
     37 H8          2.7930    2.3890    4.7660 h1        1 4O6      0.065700
     38 H9          0.8890    4.3360    1.7880 h1        1 4O6      0.065700
     39 H10         2.4890    3.5670    1.3030 h1        1 4O6      0.065700
     40 H11         0.6880    2.1810    0.3850 h1        1 4O6      0.062700
     41 H12        -0.2280    2.1990    1.9650 h1        1 4O6      0.062700
     42 H13         3.4630   -0.6270   -0.8860 h1        1 4O6      0.072200
     43 H14         2.6400   -0.5480   -2.5150 h1        1 4O6      0.072200
     44 H15         4.3970   -2.6470   -1.5750 hc        1 4O6      0.077700
     45 H16         3.3430   -2.7080   -3.0430 hc        1 4O6      0.077700
     46 H17         2.9780   -3.9760   -0.3030 h1        1 4O6      0.106700
     47 H18         1.2960   -4.4150   -2.6740 hn        1 4O6      0.405300
     48 H19         2.0000   -6.7080    1.0640 h4        1 4O6      0.228000
     49 H20        -0.5900   -5.0110    0.9840 ha        1 4O6      0.179000
     50 H21        -1.1830   -3.9540    2.9550 ha        1 4O6      0.154500
     51 H22        -0.9380   -3.5840    5.4010 ha        1 4O6      0.174500
     52 H23         2.4260   -6.3310    5.4820 ha        1 4O6      0.174500
     53 H24         2.1890   -6.7100    3.0520 ha        1 4O6      0.154500
     54 H322        2.7610   -5.1200   -2.4790 hn        1 4O6      0.405300
@<TRIPOS>BOND
     1    1    2 1   
     2    1   30 1   
     3    1   31 1   
     4    1   32 1   
     5    2    3 1   
     6    2   11 1   
     7    2   33 1   
     8    3    4 2   
     9    3    5 1   
    10    5    6 1   
    11    5   10 1   
    12    6    7 1   
    13    6   34 1   
    14    6   35 1   
    15    7    8 1   
    16    7   36 1   
    17    7   37 1   
    18    8    9 1   
    19    9   10 1   
    20    9   38 1   
    21    9   39 1   
    22   10   40 1   
    23   10   41 1   
    24   11   12 1   
    25   11   28 1   
    26   12   13 1   
    27   12   42 1   
    28   12   43 1   
    29   13   14 1   
    30   13   44 1   
    31   13   45 1   
    32   14   15 1   
    33   14   28 1   
    34   14   46 1   
    35   15   47 1   
    36   15   54 1   
    37   16   17 1   
    38   16   18 1   
    39   16   19 1   
    40   19   20 2   
    41   19   48 1   
    42   20   21 1   
    43   20   49 1   
    44   21   22 ar  
    45   21   27 ar  
    46   22   23 ar  
    47   22   50 1   
    48   23   24 ar  
    49   23   51 1   
    50   24   25 1   
    51   24   26 ar  
    52   26   27 ar  
    53   26   52 1   
    54   27   53 1   
    55   28   29 2   
@<TRIPOS>SUBSTRUCTURE
     1 4O6         1 TEMP              0 ****  ****    0 ROOT
