@<TRIPOS>MOLECULE
4O7
   65    72     1     0     0
SMALL
bcc


@<TRIPOS>ATOM
      1 O4           0.0000     0.0000     0.0000 os         1 4O7      -0.368600
      2 C25          1.4110     0.0000     0.0000 c3         1 4O7       0.182800
      3 C24          2.0060    -1.1270    -0.8300 c3         1 4O7      -0.075400
      4 C23          1.3510    -2.4560    -0.4370 c3         1 4O7       0.088500
      5 C22         -0.1560    -2.3360    -0.6900 c3         1 4O7       0.123100
      6 C21         -0.7190    -1.2030     0.1590 c3         1 4O7       0.162500
      7 C26         -2.1430    -0.9360    -0.3310 c3         1 4O7      -0.047100
      8 N2          -0.8160    -1.6160     1.5610 na         1 4O7       0.391600
      9 C18          0.1250    -1.3640     2.5250 cc         1 4O7      -0.123100
     10 C19          1.3640    -0.5770     2.4460 cc         1 4O7      -0.106100
     11 C6           2.0720    -0.3180     3.5920 cd         1 4O7      -0.141400
     12 C7           1.6210    -0.7300     4.9620 c3         1 4O7       0.041500
     13 C10          0.6500    -1.9250     4.9390 c3         1 4O7       0.036500
     14 C11         -0.2160    -1.9560     3.7170 cd         1 4O7      -0.140400
     15 C12         -1.5070    -2.5610     3.4960 ca         1 4O7      -0.080800
     16 C17         -1.8430    -2.3200     2.1370 ca         1 4O7      -0.189200
     17 C16         -3.0480    -2.7810     1.6100 ca         1 4O7      -0.124000
     18 C15         -3.8820    -3.4770     2.4690 ca         1 4O7      -0.092000
     19 C14         -3.5500    -3.7130     3.7930 ca         1 4O7      -0.133000
     20 C13         -2.3730    -3.2700     4.3400 ca         1 4O7      -0.049000
     21 C9           1.6070    -3.1380     4.9250 c3         1 4O7       0.146800
     22 N1           2.7650    -2.7270     5.7440 n7         1 4O7      -0.623200
     23 C8           2.8310    -1.2560     5.7610 c3         1 4O7       0.329300
     24 O5           2.7670    -0.7810     7.1070 oh         1 4O7      -0.599800
     25 C5           3.2550     0.3950     3.1700 ca         1 4O7      -0.073800
     26 C20          3.1450     0.5640     1.7620 ca         1 4O7      -0.205200
     27 C1           4.1440     1.2210     1.0490 ca         1 4O7      -0.115000
     28 C2           5.2260     1.6930     1.7720 ca         1 4O7      -0.089000
     29 C3           5.3280     1.5310     3.1430 ca         1 4O7      -0.131000
     30 C4           4.3600     0.8880     3.8750 ca         1 4O7      -0.056000
     31 N3           1.9620     0.0000     1.3570 na         1 4O7       0.392600
     32 O6          -0.7990    -3.5620    -0.3370 os         1 4O7      -0.394600
     33 C27         -0.8900    -4.5000    -1.4110 c3         1 4O7       0.246700
     34 N4           1.5970    -2.7290     0.9860 n7         1 4O7      -0.609200
     35 C28          2.8960    -3.3860     1.1800 c3         1 4O7       0.167100
     36 H1           1.7220     0.9280    -0.4640 h2         1 4O7       0.048700
     37 H2           3.0720    -1.1840    -0.6460 hc         1 4O7       0.040200
     38 H3           1.8250    -0.9340    -1.8800 hc         1 4O7       0.040200
     39 H4           1.7590    -3.2560    -1.0430 h1         1 4O7       0.027700
     40 H5          -0.3280    -2.1200    -1.7370 h1         1 4O7       0.035700
     41 H6          -2.7590    -0.6220     0.5030 hc         1 4O7       0.036033
     42 H7          -2.5530    -1.8410    -0.7620 hc         1 4O7       0.036033
     43 H8          -2.1260    -0.1550    -1.0810 hc         1 4O7       0.036033
     44 H9           1.1690     0.1090     5.4770 hc         1 4O7       0.051700
     45 H10          0.0410    -1.9340     5.8350 hc         1 4O7       0.037700
     46 H11         -3.3200    -2.6030     0.5770 ha         1 4O7       0.123000
     47 H12         -4.8260    -3.8520     2.0920 ha         1 4O7       0.094000
     48 H13         -4.2430    -4.2640     4.4170 ha         1 4O7       0.097000
     49 H14         -2.1230    -3.4600     5.3770 ha         1 4O7       0.107000
     50 H15          1.1240    -4.0010     5.3670 h1         1 4O7       0.023700
     51 H16          1.9230    -3.3550     3.9120 h1         1 4O7       0.023700
     52 H17          2.6500    -3.0670     6.6790 hn         1 4O7       0.263800
     53 H19          3.7500    -0.9250     5.2920 h2         1 4O7       0.037700
     54 H20          3.6370    -0.7370     7.4660 ho         1 4O7       0.393000
     55 H21          4.0790     1.3550    -0.0240 ha         1 4O7       0.102000
     56 H22          6.0210     2.2090     1.2460 ha         1 4O7       0.096000
     57 H23          6.1980     1.9230     3.6550 ha         1 4O7       0.098000
     58 H24          4.4480     0.7660     4.9480 ha         1 4O7       0.111000
     59 H25          0.0430    -4.5120    -1.9600 h1         1 4O7      -0.006300
     60 H26         -1.0880    -5.4880    -1.0120 h1         1 4O7      -0.006300
     61 H27         -1.6960    -4.2110    -2.0750 h1         1 4O7      -0.006300
     62 H28          0.8690    -3.3160     1.3440 hn         1 4O7       0.294800
     63 H30          3.3990    -3.4800     0.2250 h1         1 4O7       0.008033
     64 H31          2.7430    -4.3700     1.6060 h1         1 4O7       0.008033
     65 H32          3.5040    -2.7920     1.8520 h1         1 4O7       0.008033
@<TRIPOS>BOND
     1     1     2 1   
     2     1     6 1   
     3     2     3 1   
     4     2    31 1   
     5     2    36 1   
     6     3     4 1   
     7     3    37 1   
     8     3    38 1   
     9     4     5 1   
    10     4    34 1   
    11     4    39 1   
    12     5     6 1   
    13     5    32 1   
    14     5    40 1   
    15     6     7 1   
    16     6     8 1   
    17     7    41 1   
    18     7    42 1   
    19     7    43 1   
    20     8     9 1   
    21     8    16 1   
    22     9    10 1   
    23     9    14 2   
    24    10    11 2   
    25    10    31 1   
    26    11    12 1   
    27    11    25 1   
    28    12    13 1   
    29    12    23 1   
    30    12    44 1   
    31    13    14 1   
    32    13    21 1   
    33    13    45 1   
    34    14    15 1   
    35    15    16 ar  
    36    15    20 ar  
    37    16    17 ar  
    38    17    18 ar  
    39    17    46 1   
    40    18    19 ar  
    41    18    47 1   
    42    19    20 ar  
    43    19    48 1   
    44    20    49 1   
    45    21    22 1   
    46    21    50 1   
    47    21    51 1   
    48    22    23 1   
    49    22    52 1   
    50    23    24 1   
    51    23    53 1   
    52    24    54 1   
    53    25    26 ar  
    54    25    30 ar  
    55    26    27 ar  
    56    26    31 1   
    57    27    28 ar  
    58    27    55 1   
    59    28    29 ar  
    60    28    56 1   
    61    29    30 ar  
    62    29    57 1   
    63    30    58 1   
    64    32    33 1   
    65    33    59 1   
    66    33    60 1   
    67    33    61 1   
    68    34    35 1   
    69    34    62 1   
    70    35    63 1   
    71    35    64 1   
    72    35    65 1   
@<TRIPOS>SUBSTRUCTURE
     1 4O7         1 TEMP              0 ****  ****    0 ROOT
