@<TRIPOS>MOLECULE
4O8
   35    36     1     0     0
SMALL
bcc


@<TRIPOS>ATOM
      1 O21          0.0000     0.0000     0.0000 o          1 4O8      -0.874300
      2 C19          1.3430     0.0000     0.0000 c          1 4O8       0.972600
      3 O20          1.9480     0.0000     1.0460 o          1 4O8      -0.874300
      4 C18          2.0950    -0.0010    -1.3060 c3         1 4O8       0.068400
      5 O17          3.5000    -0.0010    -1.0450 os         1 4O8      -0.202900
      6 C11          4.3270    -0.0010    -2.1210 ca         1 4O8       0.244100
      7 C13          3.8000     0.0050    -3.4040 ca         1 4O8      -0.237000
      8 C15          4.6430     0.0040    -4.4990 ca         1 4O8       0.041400
      9 Cl2          3.9750     0.0120    -6.1020 cl         1 4O8      -0.061400
     10 C14          6.0180    -0.0010    -4.3240 ca         1 4O8      -0.193000
     11 C12          6.5580    -0.0070    -3.0570 ca         1 4O8      -0.041000
     12 C10          5.7170    -0.0010    -1.9410 ca         1 4O8      -0.217600
     13 C9           6.2890    -0.0000    -0.5810 c          1 4O8       0.589700
     14 O16          5.5530    -0.0000     0.3870 o          1 4O8      -0.570100
     15 N8           7.6260    -0.0010    -0.4130 ns         1 4O8      -0.234900
     16 C7           8.1940     0.0000     0.9370 c3         1 4O8       0.117300
     17 C1           9.6990     0.0000     0.8500 ca         1 4O8      -0.165300
     18 C2          10.3890    -1.1990     0.8040 ca         1 4O8       0.156400
     19 F25          9.7150    -2.3690     0.8380 f          1 4O8      -0.112900
     20 C3          10.3890     1.1980     0.8090 ca         1 4O8       0.156400
     21 F24          9.7150     2.3690     0.8490 f          1 4O8      -0.112900
     22 C5          11.7720     1.1970     0.7280 ca         1 4O8      -0.138000
     23 C6          12.4610    -0.0010     0.6880 ca         1 4O8       0.079100
     24 Br2         14.3500    -0.0010     0.5790 br         1 4O8      -0.119100
     25 C4          11.7710    -1.1980     0.7230 ca         1 4O8      -0.138000
     26 H2           1.8330    -0.8850    -1.8730 h1         1 4O8      -0.003300
     27 H3           1.8340     0.8840    -1.8740 h1         1 4O8      -0.003300
     28 H4           2.7260     0.0110    -3.5480 ha         1 4O8       0.150000
     29 H5           6.6710    -0.0040    -5.1880 ha         1 4O8       0.107000
     30 H6           7.6340    -0.0090    -2.9260 ha         1 4O8       0.092000
     31 H7           8.2300     0.0020    -1.2110 hn         1 4O8       0.174500
     32 H8           7.8630     0.8850     1.4680 h1         1 4O8       0.042700
     33 H9           7.8630    -0.8840     1.4680 h1         1 4O8       0.042700
     34 H10         12.3130     2.1350     0.6960 ha         1 4O8       0.134000
     35 H11         12.3120    -2.1360     0.6900 ha         1 4O8       0.134000
@<TRIPOS>BOND
     1     1     2 1   
     2     2     3 1   
     3     2     4 1   
     4     4     5 1   
     5     4    26 1   
     6     4    27 1   
     7     5     6 1   
     8     6     7 ar  
     9     6    12 ar  
    10     7     8 ar  
    11     7    28 1   
    12     8     9 1   
    13     8    10 ar  
    14    10    11 ar  
    15    10    29 1   
    16    11    12 ar  
    17    11    30 1   
    18    12    13 1   
    19    13    14 2   
    20    13    15 1   
    21    15    16 1   
    22    15    31 1   
    23    16    17 1   
    24    16    32 1   
    25    16    33 1   
    26    17    18 ar  
    27    17    20 ar  
    28    18    19 1   
    29    18    25 ar  
    30    20    21 1   
    31    20    22 ar  
    32    22    23 ar  
    33    22    34 1   
    34    23    24 1   
    35    23    25 ar  
    36    25    35 1   
@<TRIPOS>SUBSTRUCTURE
     1 4O8         1 TEMP              0 ****  ****    0 ROOT
