@<TRIPOS>MOLECULE
4O9
   35    36     1     0     0
SMALL
bcc


@<TRIPOS>ATOM
      1 O21          0.0000     0.0000     0.0000 o          1 4O9      -0.874300
      2 C19          1.3430     0.0000     0.0000 c          1 4O9       0.971600
      3 O20          1.9470     0.0000     1.0470 o          1 4O9      -0.874300
      4 C18          2.0970    -0.0010    -1.3040 c3         1 4O9       0.068400
      5 O17          3.5020    -0.0010    -1.0430 os         1 4O9      -0.202900
      6 C11          4.3290    -0.0010    -2.1180 ca         1 4O9       0.244100
      7 C13          3.8020     0.0050    -3.4010 ca         1 4O9      -0.237000
      8 C15          4.6460     0.0040    -4.4950 ca         1 4O9       0.041400
      9 Cl2          3.9800     0.0120    -6.0980 cl         1 4O9      -0.061400
     10 C14          6.0220    -0.0010    -4.3200 ca         1 4O9      -0.193000
     11 C12          6.5610    -0.0070    -3.0520 ca         1 4O9      -0.041000
     12 C10          5.7180    -0.0010    -1.9380 ca         1 4O9      -0.217600
     13 C9           6.2890    -0.0000    -0.5770 c          1 4O9       0.589700
     14 O16          5.5530    -0.0000     0.3910 o          1 4O9      -0.570100
     15 N8           7.6260    -0.0010    -0.4070 ns         1 4O9      -0.234900
     16 C7           8.1930     0.0000     0.9430 c3         1 4O9       0.118300
     17 C1           9.6980     0.0000     0.8570 ca         1 4O9      -0.169300
     18 C2          10.3890    -1.1990     0.8110 ca         1 4O9       0.156900
     19 F25          9.7150    -2.3690     0.8440 f          1 4O9      -0.112900
     20 C3          10.3890     1.1980     0.8160 ca         1 4O9       0.156900
     21 F24          9.7160     2.3680     0.8550 f          1 4O9      -0.112900
     22 C5          11.7720     1.1970     0.7360 ca         1 4O9      -0.140000
     23 C6          12.4610    -0.0010     0.6970 ca         1 4O9       0.242900
     24 I23         14.5530    -0.0010     0.5760 i          1 4O9      -0.279900
     25 C4          11.7720    -1.1980     0.7310 ca         1 4O9      -0.140000
     26 H2           1.8350    -0.8850    -1.8720 h1         1 4O9      -0.003300
     27 H3           1.8360     0.8840    -1.8730 h1         1 4O9      -0.003300
     28 H4           2.7290     0.0110    -3.5450 ha         1 4O9       0.150000
     29 H5           6.6760    -0.0040    -5.1840 ha         1 4O9       0.107000
     30 H6           7.6360    -0.0090    -2.9190 ha         1 4O9       0.092000
     31 H7           8.2320     0.0010    -1.2040 hn         1 4O9       0.174500
     32 H8           7.8620     0.8850     1.4730 h1         1 4O9       0.042700
     33 H9           7.8620    -0.8840     1.4740 h1         1 4O9       0.042700
     34 H10         12.3130     2.1350     0.7050 ha         1 4O9       0.135000
     35 H11         12.3130    -2.1360     0.6970 ha         1 4O9       0.135000
@<TRIPOS>BOND
     1     1     2 1   
     2     2     3 1   
     3     2     4 1   
     4     4     5 1   
     5     4    26 1   
     6     4    27 1   
     7     5     6 1   
     8     6     7 ar  
     9     6    12 ar  
    10     7     8 ar  
    11     7    28 1   
    12     8     9 1   
    13     8    10 ar  
    14    10    11 ar  
    15    10    29 1   
    16    11    12 ar  
    17    11    30 1   
    18    12    13 1   
    19    13    14 2   
    20    13    15 1   
    21    15    16 1   
    22    15    31 1   
    23    16    17 1   
    24    16    32 1   
    25    16    33 1   
    26    17    18 ar  
    27    17    20 ar  
    28    18    19 1   
    29    18    25 ar  
    30    20    21 1   
    31    20    22 ar  
    32    22    23 ar  
    33    22    34 1   
    34    23    24 1   
    35    23    25 ar  
    36    25    35 1   
@<TRIPOS>SUBSTRUCTURE
     1 4O9         1 TEMP              0 ****  ****    0 ROOT
