@<TRIPOS>MOLECULE
molecule
   66    69     1     0     0
SMALL
bcc


@<TRIPOS>ATOM
      1 C1           0.0000     0.0000     0.0000 c3         1 4OA      -0.071400
      2 C10          1.5310     0.0000     0.0000 c3         1 4OA      -0.055000
      3 C11          1.4740    -1.3070    -2.1320 c3         1 4OA      -0.080400
      4 C12          2.0410    -2.5030    -2.9150 c3         1 4OA      -0.065400
      5 C13          3.5510    -2.3650    -2.9190 c3         1 4OA      -0.062000
      6 C14          4.0330    -2.4910    -1.4480 c3         1 4OA      -0.069700
      7 C15          5.5470    -2.6430    -1.6310 c3         1 4OA      -0.079400
      8 C16          5.6560    -3.6060    -2.8450 c3         1 4OA      -0.078400
      9 C17          4.3340    -3.4570    -3.6390 c3         1 4OA      -0.051700
     10 C18          3.9430    -0.9950    -3.4750 c3         1 4OA      -0.091100
     11 C19          2.0410     1.2480    -0.7240 c3         1 4OA      -0.087100
     12 O1B         -0.4740    -2.4250     2.8300 oh         1 4OA      -0.607800
     13 C2          -0.5090    -1.2520     0.7180 c3         1 4OA      -0.092400
     14 C20          4.6260    -3.0370    -5.0810 c3         1 4OA      -0.079700
     15 C21          3.3130    -2.9390    -5.8600 c3         1 4OA      -0.092100
     16 C22          5.5340    -4.0770    -5.7410 c3         1 4OA      -0.062400
     17 C23          5.9270    -3.5960    -7.1400 c3         1 4OA      -0.185400
     18 C24          6.8210    -4.6200    -7.7900 c          1 4OA       0.890600
     19 C3           0.0010    -1.2560     2.1600 c3         1 4OA       0.147100
     20 C4           1.5310    -1.2520     2.1610 c3         1 4OA      -0.090400
     21 O4           7.2920    -4.4090    -9.0290 o          1 4OA      -0.857800
     22 O4A          7.1140    -5.6310    -7.1960 o          1 4OA      -0.857800
     23 C5           2.0390     0.0000     1.4440 c3         1 4OA      -0.055700
     24 C6           3.5690     0.0010     1.4440 c3         1 4OA      -0.076400
     25 C7           4.0830    -1.2450     0.7200 c3         1 4OA      -0.077400
     26 C8           3.5760    -1.2390    -0.7230 c3         1 4OA      -0.062700
     27 C9           2.0400    -1.2510    -0.7180 c3         1 4OA      -0.056700
     28 H1          -0.3600     0.8820     0.5160 hc         1 4OA       0.041700
     29 H1A         -0.3600     0.0010    -1.0220 hc         1 4OA       0.041700
     30 H11          1.7300    -0.3920    -2.6520 hc         1 4OA       0.039200
     31 H11A         0.3960    -1.4000    -2.0780 hc         1 4OA       0.039200
     32 H12          1.7580    -3.4290    -2.4280 hc         1 4OA       0.045200
     33 H12A         1.6690    -2.4870    -3.9320 hc         1 4OA       0.045200
     34 H14          3.6130    -3.3760    -0.9860 hc         1 4OA       0.054700
     35 H15          6.0010    -1.6860    -1.8600 hc         1 4OA       0.037200
     36 H15A         5.9950    -3.0870    -0.7500 hc         1 4OA       0.037200
     37 H16          6.4960    -3.3230    -3.4680 hc         1 4OA       0.052700
     38 H16A         5.7690    -4.6260    -2.5000 hc         1 4OA       0.052700
     39 H17          3.7800    -4.3880    -3.6180 hc         1 4OA       0.052700
     40 H18          5.0050    -0.9830    -3.6900 hc         1 4OA       0.037700
     41 H18A         3.7140    -0.2290    -2.7440 hc         1 4OA       0.037700
     42 H18B         3.3880    -0.8030    -4.3850 hc         1 4OA       0.037700
     43 H19          1.6100     1.2910    -1.7170 hc         1 4OA       0.036033
     44 H19A         3.1210     1.2040    -0.8000 hc         1 4OA       0.036033
     45 H19B         1.7540     2.1310    -0.1670 hc         1 4OA       0.036033
     46 HO1B        -0.9990    -2.1720     3.5710 ho         1 4OA       0.394000
     47 H2          -1.5920    -1.2500     0.7190 hc         1 4OA       0.052200
     48 H2A         -0.1450    -2.1340     0.2050 hc         1 4OA       0.052200
     49 H20          5.1200    -2.0730    -5.0840 hc         1 4OA       0.047700
     50 H21          2.5520    -3.5260    -5.3600 hc         1 4OA       0.029367
     51 H21A         3.4590    -3.3190    -6.8640 hc         1 4OA       0.029367
     52 H21B         2.9970    -1.9040    -5.9080 hc         1 4OA       0.029367
     53 H22          5.0060    -5.0200    -5.8180 hc         1 4OA       0.047700
     54 H22A         6.4260    -4.2100    -5.1410 hc         1 4OA       0.047700
     55 H23          6.4550    -2.6530    -7.0630 hc         1 4OA       0.027700
     56 H23A         5.0350    -3.4620    -7.7400 hc         1 4OA       0.027700
     57 H3          -0.3600    -0.3710     2.6700 h1         1 4OA       0.022700
     58 H4           1.8930    -2.1340     1.6460 hc         1 4OA       0.054700
     59 H4A          1.8900    -1.2520     3.1830 hc         1 4OA       0.054700
     60 H5           1.6760     0.8830     1.9550 hc         1 4OA       0.041700
     61 H6           3.9280    -0.0030     2.4660 hc         1 4OA       0.038200
     62 H6A          3.9280     0.8870     0.9340 hc         1 4OA       0.038200
     63 H7           5.1660    -1.2410     0.7210 hc         1 4OA       0.043700
     64 H7A          3.7190    -2.1310     1.2260 hc         1 4OA       0.043700
     65 H8           3.9380    -0.3580    -1.2400 hc         1 4OA       0.067700
     66 H9           1.7020    -2.1250    -0.1740 hc         1 4OA       0.057700
@<TRIPOS>BOND
     1    13     1 1
     2     1     2 1
     3     1    28 1
     4     1    29 1
     5    23     2 1
     6     2    27 1
     7     2    11 1
     8    27     3 1
     9     3     4 1
    10     3    30 1
    11     3    31 1
    12     4     5 1
    13     4    32 1
    14     4    33 1
    15     6     5 1
    16     5     9 1
    17     5    10 1
    18    26     6 1
    19     6     7 1
    20     6    34 1
    21     7     8 1
    22     7    35 1
    23     7    36 1
    24     9     8 1
    25     8    37 1
    26     8    38 1
    27     9    14 1
    28     9    39 1
    29    10    40 1
    30    10    41 1
    31    10    42 1
    32    11    43 1
    33    11    44 1
    34    11    45 1
    35    12    19 1
    36    12    46 1
    37    19    13 1
    38    13    47 1
    39    13    48 1
    40    15    14 1
    41    14    16 1
    42    14    49 1
    43    15    50 1
    44    15    51 1
    45    15    52 1
    46    17    16 1
    47    16    53 1
    48    16    54 1
    49    17    18 1
    50    17    55 1
    51    17    56 1
    52    22    18 1
    53    18    21 1
    54    19    20 1
    55    19    57 1
    56    20    23 1
    57    20    58 1
    58    20    59 1
    59    23    24 1
    60    23    60 1
    61    24    25 1
    62    24    61 1
    63    24    62 1
    64    25    26 1
    65    25    63 1
    66    25    64 1
    67    27    26 1
    68    26    65 1
    69    27    66 1
@<TRIPOS>SUBSTRUCTURE
     1 4OA         1 TEMP              0 ****  ****    0 ROOT
