@<TRIPOS>MOLECULE
4OA
   66    69     1     0     0
SMALL
bcc


@<TRIPOS>ATOM
      1 C1         -0.0550   -0.0880    0.2160 c3        1 4OA     -0.068400
      2 C10         1.4770   -0.0120    0.1530 c3        1 4OA     -0.035000
      3 C11         1.5260   -1.0490   -2.1810 c3        1 4OA     -0.072400
      4 C12         2.1380   -2.0840   -3.1140 c3        1 4OA     -0.065400
      5 C13         3.6560   -2.0060   -3.1070 c3        1 4OA     -0.047000
      6 C14         4.0980   -2.1970   -1.6330 c3        1 4OA     -0.067700
      7 C15         5.5920   -2.4700   -1.7280 c3        1 4OA     -0.073400
      8 C16         5.7570   -3.2270   -3.0480 c3        1 4OA     -0.080400
      9 C17         4.4040   -3.1790   -3.7890 c3        1 4OA     -0.047700
     10 C18         4.1240   -0.6850   -3.6940 c3        1 4OA     -0.080100
     11 C19         1.8170    1.3850   -0.3610 c3        1 4OA     -0.087100
     12 O1B        -0.4220   -2.5990    2.9840 oh        1 4OA     -0.602800
     13 C2         -0.5800   -1.3210    0.9120 c3        1 4OA     -0.112400
     14 C20         4.5880   -3.1090   -5.3010 c3        1 4OA     -0.061700
     15 C21         3.2560   -3.0360   -6.0230 c3        1 4OA     -0.086100
     16 C22         5.3720   -4.3250   -5.7930 c3        1 4OA     -0.068400
     17 C23         5.9390   -4.1380   -7.1800 c3        1 4OA     -0.195400
     18 C24         6.9810   -5.2240   -7.5070 c         1 4OA      0.907600
     19 C3         -0.0280   -1.3970    2.3300 c3        1 4OA      0.141100
     20 C4          1.4950   -1.3900    2.3080 c3        1 4OA     -0.073400
     21 O4          6.9340   -5.7550   -8.6540 o         1 4OA     -0.851800
     22 O4A         7.8440   -5.5180   -6.6300 o         1 4OA     -0.851800
     23 C5          2.0330   -0.1650    1.5850 c3        1 4OA     -0.050700
     24 C6          3.5550   -0.1860    1.5970 c3        1 4OA     -0.070400
     25 C7          4.1290   -1.2390    0.6760 c3        1 4OA     -0.074400
     26 C8          3.6050   -1.0770   -0.7410 c3        1 4OA     -0.046700
     27 C9          2.0670   -1.1050   -0.7570 c3        1 4OA     -0.046700
     28 H1         -0.4260    0.8190    0.7670 hc        1 4OA      0.039200
     29 H1A        -0.4760   -0.0350   -0.8210 hc        1 4OA      0.039200
     30 H11         1.6950   -0.0260   -2.6080 hc        1 4OA      0.033200
     31 H11A        0.4170   -1.2240   -2.1580 hc        1 4OA      0.033200
     32 H12         1.7450   -1.9150   -4.1490 hc        1 4OA      0.041700
     33 H12A        1.8180   -3.1120   -2.7970 hc        1 4OA      0.041700
     34 H14         3.6170   -3.1510   -1.2620 hc        1 4OA      0.043700
     35 H15         6.1730   -1.5140   -1.7380 hc        1 4OA      0.033200
     36 H15A        5.9490   -3.0750   -0.8600 hc        1 4OA      0.033200
     37 H16         6.0520   -4.2890   -2.8610 hc        1 4OA      0.056200
     38 H16A        6.5590   -2.7570   -3.6690 hc        1 4OA      0.056200
     39 H17         3.8340   -4.1220   -3.5610 hc        1 4OA      0.041700
     40 H18         3.7210    0.1860   -3.1240 hc        1 4OA      0.033033
     41 H18A        5.2390   -0.6320   -3.6790 hc        1 4OA      0.033033
     42 H18B        3.7780   -0.5930   -4.7520 hc        1 4OA      0.033033
     43 H19         1.4900    2.1580    0.3770 hc        1 4OA      0.033700
     44 H19A        2.9130    1.5020   -0.5260 hc        1 4OA      0.033700
     45 H19B        1.2910    1.5810   -1.3270 hc        1 4OA      0.033700
     46 HO1B       -1.3680   -2.7000    2.8320 ho        1 4OA      0.395000
     47 H2         -0.2890   -2.2460    0.3480 hc        1 4OA      0.046200
     48 H2A        -1.7000   -1.2860    0.9450 hc        1 4OA      0.046200
     49 H20         5.1830   -2.1850   -5.5490 hc        1 4OA      0.043700
     50 H21         3.4000   -3.2530   -7.1100 hc        1 4OA      0.025033
     51 H21A        2.8010   -2.0210   -5.9310 hc        1 4OA      0.025033
     52 H21B        2.5410   -3.7850   -5.6060 hc        1 4OA      0.025033
     53 H22         6.2320   -4.5400   -5.1020 hc        1 4OA      0.047700
     54 H22A        4.7030   -5.2240   -5.7780 hc        1 4OA      0.047700
     55 H23         5.1290   -4.1660   -7.9510 hc        1 4OA      0.019700
     56 H23A        6.4520   -3.1450   -7.2560 hc        1 4OA      0.019700
     57 H3         -0.4090   -0.5220    2.9310 h1        1 4OA      0.026700
     58 H4          1.8550   -2.3310    1.8160 hc        1 4OA      0.056200
     59 H4A         1.8750   -1.3990    3.3620 hc        1 4OA      0.056200
     60 H5          1.6970    0.7430    2.1670 hc        1 4OA      0.036700
     61 H6          3.9360    0.8240    1.2910 hc        1 4OA      0.035700
     62 H6A         3.9120   -0.3730    2.6440 hc        1 4OA      0.035700
     63 H7          5.2480   -1.1580    0.6630 hc        1 4OA      0.042700
     64 H7A         3.8760   -2.2620    1.0580 hc        1 4OA      0.042700
     65 H8          3.9710   -0.0930   -1.1410 hc        1 4OA      0.052700
     66 H9          1.7510   -2.0980   -0.3230 hc        1 4OA      0.047700
@<TRIPOS>BOND
     1    1    2 1   
     2    1   13 1   
     3    1   28 1   
     4    1   29 1   
     5    2   11 1   
     6    2   23 1   
     7    2   27 1   
     8    3    4 1   
     9    3   27 1   
    10    3   30 1   
    11    3   31 1   
    12    4    5 1   
    13    4   32 1   
    14    4   33 1   
    15    5    6 1   
    16    5    9 1   
    17    5   10 1   
    18    6    7 1   
    19    6   26 1   
    20    6   34 1   
    21    7    8 1   
    22    7   35 1   
    23    7   36 1   
    24    8    9 1   
    25    8   37 1   
    26    8   38 1   
    27    9   14 1   
    28    9   39 1   
    29   10   40 1   
    30   10   41 1   
    31   10   42 1   
    32   11   43 1   
    33   11   44 1   
    34   11   45 1   
    35   12   19 1   
    36   12   46 1   
    37   13   19 1   
    38   13   47 1   
    39   13   48 1   
    40   14   15 1   
    41   14   16 1   
    42   14   49 1   
    43   15   50 1   
    44   15   51 1   
    45   15   52 1   
    46   16   17 1   
    47   16   53 1   
    48   16   54 1   
    49   17   18 1   
    50   17   55 1   
    51   17   56 1   
    52   18   21 1   
    53   18   22 1   
    54   19   20 1   
    55   19   57 1   
    56   20   23 1   
    57   20   58 1   
    58   20   59 1   
    59   23   24 1   
    60   23   60 1   
    61   24   25 1   
    62   24   61 1   
    63   24   62 1   
    64   25   26 1   
    65   25   63 1   
    66   25   64 1   
    67   26   27 1   
    68   26   65 1   
    69   27   66 1   
@<TRIPOS>SUBSTRUCTURE
     1 4OA         1 TEMP              0 ****  ****    0 ROOT
