@<TRIPOS>MOLECULE
4OB
   31    32     1     0     0
SMALL
bcc


@<TRIPOS>ATOM
      1 FAB          0.0000     0.0000     0.0000 f          1 4OB      -0.206967
      2 CAT          1.3980     0.0000     0.0000 c3         1 4OB       0.641200
      3 FAC          1.8650     0.0000     1.3190 f          1 4OB      -0.206967
      4 FAD          1.8640    -1.1430    -0.6590 f          1 4OB      -0.206967
      5 CAS          1.9010     1.2290    -0.7110 ca         1 4OB      -0.213300
      6 CAM          3.2580     1.4440    -0.8420 ca         1 4OB      -0.031000
      7 CAL          1.0010     2.1400    -1.2370 ca         1 4OB      -0.033000
      8 CAH          1.4540     3.2710    -1.8920 ca         1 4OB      -0.102000
      9 CAK          2.8080     3.4990    -2.0250 ca         1 4OB      -0.048000
     10 CAR          3.7220     2.5830    -1.5010 ca         1 4OB      -0.176900
     11 CAP          5.1740     2.8180    -1.6440 ce         1 4OB       0.520800
     12 NAN          6.0270     2.5080    -0.6090 nu         1 4OB      -0.242700
     13 OAA          7.4180     2.7330    -0.7460 oh         1 4OB      -0.392300
     14 NAO          5.6490     3.3230    -2.7580 nf         1 4OB      -0.552100
     15 CAQ          4.8280     3.4920    -3.8390 ca         1 4OB       0.144400
     16 CAI          4.2700     2.3810    -4.4760 ca         1 4OB      -0.146500
     17 CAF          3.4420     2.5590    -5.5640 ca         1 4OB      -0.079000
     18 CAE          3.1630     3.8340    -6.0260 ca         1 4OB      -0.135000
     19 CAG          3.7130     4.9390    -5.4000 ca         1 4OB      -0.079000
     20 CAJ          4.5380     4.7750    -4.3060 ca         1 4OB      -0.146500
     21 H1           3.9620     0.7290    -0.4330 ha         1 4OB       0.115000
     22 H2          -0.0640     1.9650    -1.1350 ha         1 4OB       0.122000
     23 H3           0.7440     3.9800    -2.3000 ha         1 4OB       0.116000
     24 H4           3.1620     4.3850    -2.5380 ha         1 4OB       0.141000
     25 H5           5.6590     2.1610     0.2550 hn         1 4OB       0.277800
     26 H6           7.8320     2.6640     0.0980 ho         1 4OB       0.392000
     27 H7           4.4880     1.3830    -4.1160 ha         1 4OB       0.113500
     28 H8           3.0080     1.6990    -6.0590 ha         1 4OB       0.100500
     29 H9           2.5140     3.9670    -6.8820 ha         1 4OB       0.102000
     30 H10          3.4890     5.9340    -5.7640 ha         1 4OB       0.100500
     31 H11          4.9680     5.6410    -3.8160 ha         1 4OB       0.113500
@<TRIPOS>BOND
     1     1     2 1   
     2     2     3 1   
     3     2     4 1   
     4     2     5 1   
     5     5     6 ar  
     6     5     7 ar  
     7     6    10 ar  
     8     6    21 1   
     9     7     8 ar  
    10     7    22 1   
    11     8     9 ar  
    12     8    23 1   
    13     9    10 ar  
    14     9    24 1   
    15    10    11 1   
    16    11    12 1   
    17    11    14 2   
    18    12    13 1   
    19    12    25 1   
    20    13    26 1   
    21    14    15 1   
    22    15    16 ar  
    23    15    20 ar  
    24    16    17 ar  
    25    16    27 1   
    26    17    18 ar  
    27    17    28 1   
    28    18    19 ar  
    29    18    29 1   
    30    19    20 ar  
    31    19    30 1   
    32    20    31 1   
@<TRIPOS>SUBSTRUCTURE
     1 4OB         1 TEMP              0 ****  ****    0 ROOT
