@<TRIPOS>MOLECULE
molecule
   31    32     1     0     0
SMALL
bcc


@<TRIPOS>ATOM
      1 FAC          0.0000     0.0000     0.0000 f          1 4OD      -0.217300
      2 CAV          1.3980     0.0000     0.0000 c3         1 4OD       0.681200
      3 FAD          1.8650     0.0000     1.3190 f          1 4OD      -0.217300
      4 FAE          1.8660    -1.1410    -0.6610 f          1 4OD      -0.217300
      5 CAU          1.9010     1.2320    -0.7100 ca         1 4OD      -0.229300
      6 CAM          1.0030     2.1410    -1.2280 ca         1 4OD      -0.047000
      7 CAR          3.2640     1.4500    -0.8360 ca         1 4OD       0.201900
      8 FAB          4.1390     0.5580    -0.3220 f          1 4OD      -0.116900
      9 CAJ          3.7320     2.5810    -1.4870 ca         1 4OD      -0.171000
     10 CAK          2.8440     3.4930    -2.0140 ca         1 4OD      -0.039000
     11 CAT          1.4700     3.2810    -1.8850 ca         1 4OD      -0.208900
     12 CAP          0.5120     4.2580    -2.4430 ce         1 4OD       0.732800
     13 NAO         -0.6480     3.8220    -3.0420 nu         1 4OD      -0.678700
     14 OAA         -1.5650     4.7590    -3.5770 oh         1 4OD      -0.302300
     15 NAN          0.7680     5.5430    -2.3660 nf         1 4OD      -0.651100
     16 CAS          1.8440     5.9850    -1.6460 ca         1 4OD       0.176400
     17 CAL          2.9110     6.6140    -2.2920 ca         1 4OD      -0.137000
     18 CAQ          3.9930     7.0580    -1.5590 ca         1 4OD      -0.005900
     19 BrF          5.4380     7.9100    -2.4310 br         1 4OD      -0.096100
     20 CAH          4.0210     6.8810    -0.1860 ca         1 4OD      -0.129000
     21 CAG          2.9680     6.2580     0.4600 ca         1 4OD      -0.108000
     22 CAI          1.8780     5.8150    -0.2600 ca         1 4OD      -0.156000
     23 H1          -0.0620     1.9710    -1.1250 ha         1 4OD       0.158000
     24 H2           4.7980     2.7470    -1.5850 ha         1 4OD       0.165000
     25 H3           3.2110     4.3760    -2.5230 ha         1 4OD       0.172000
     26 H4          -0.8250     2.8410    -3.1340 hn         1 4OD       0.459800
     27 H5          -2.1900     4.3110    -4.1220 ho         1 4OD       0.400000
     28 H6           2.8560     6.8190    -3.3540 ha         1 4OD       0.157000
     29 H7           4.8740     7.2290     0.3850 ha         1 4OD       0.143000
     30 H8           2.9960     6.1240     1.5350 ha         1 4OD       0.138000
     31 H9           1.0540     5.3270     0.2470 ha         1 4OD       0.141000
@<TRIPOS>BOND
     1    21    20 ar
     2    21    22 ar
     3    20    18 ar
     4    22    16 ar
     5    18    19 1
     6    18    17 ar
     7    16    17 ar
     8    16    15 1
     9    15    12 2
    10    12    13 1
    11    12    11 1
    12     3     2 1
    13    14    13 1
    14     6    11 ar
    15     6     5 ar
    16    11    10 ar
    17     1     2 1
    18     2     5 1
    19     2     4 1
    20     5     7 ar
    21    10     9 ar
    22     7     9 ar
    23     7     8 1
    24     6    23 1
    25     9    24 1
    26    10    25 1
    27    13    26 1
    28    14    27 1
    29    17    28 1
    30    20    29 1
    31    21    30 1
    32    22    31 1
@<TRIPOS>SUBSTRUCTURE
     1 4OD         1 TEMP              0 ****  ****    0 ROOT
