@<TRIPOS>MOLECULE
molecule
   32    34     1     0     0
SMALL
bcc


@<TRIPOS>ATOM
      1 FAC          0.0000     0.0000     0.0000 f          1 4OE      -0.219633
      2 CAW          1.3990     0.0000     0.0000 c3         1 4OE       0.680200
      3 FAD          1.8660     0.0000     1.3190 f          1 4OE      -0.219633
      4 FAE          1.8650    -1.1420    -0.6600 f          1 4OE      -0.219633
      5 CAU          1.9020     1.2300    -0.7110 ca         1 4OE      -0.224300
      6 CAM          1.0030     2.1410    -1.2300 ca         1 4OE      -0.058000
      7 CAQ          3.2640     1.4480    -0.8370 ca         1 4OE       0.178900
      8 FAB          4.1380     0.5570    -0.3230 f          1 4OE      -0.123900
      9 CAH          3.7300     2.5780    -1.4900 ca         1 4OE      -0.173000
     10 CAK          2.8410     3.4910    -2.0160 ca         1 4OE      -0.066000
     11 CAS          1.4690     3.2780    -1.8870 ca         1 4OE      -0.018000
     12 CAT          0.5080     4.2600    -2.4450 cc         1 4OE      -0.262300
     13 CAL         -0.5130     4.9200    -1.7410 cc         1 4OE       0.355200
     14 NAN         -1.1490     5.7060    -2.5690 nd         1 4OE      -0.501800
     15 NAO         -0.5730     5.5930    -3.8390 na         1 4OE      -0.031600
     16 CAV          0.4550     4.7020    -3.7610 cd         1 4OE      -0.006300
     17 CAR          1.3390     4.2810    -4.8660 ca         1 4OE      -0.058000
     18 CAI          1.6130     2.9270    -5.0670 ca         1 4OE      -0.082000
     19 CAF          2.4390     2.5380    -6.1020 ca         1 4OE      -0.168000
     20 CAP          2.9970     3.4900    -6.9400 ca         1 4OE       0.146900
     21 FAA          3.8050     3.1040    -7.9510 f          1 4OE      -0.134900
     22 CAG          2.7300     4.8360    -6.7450 ca         1 4OE      -0.168000
     23 CAJ          1.9000     5.2350    -5.7170 ca         1 4OE      -0.082000
     24 H1          -0.0620     1.9710    -1.1270 ha         1 4OE       0.161000
     25 H2           4.7960     2.7440    -1.5890 ha         1 4OE       0.155000
     26 H3           3.2070     4.3740    -2.5270 ha         1 4OE       0.150000
     27 H4          -0.7360     4.7980    -0.6880 h4         1 4OE       0.056100
     28 H6           1.1770     2.1820    -4.4120 ha         1 4OE       0.146500
     29 H7           2.6520     1.4880    -6.2590 ha         1 4OE       0.152500
     30 H8           3.1680     5.5760    -7.4050 ha         1 4OE       0.152500
     31 H9           1.6920     6.2870    -5.5650 ha         1 4OE       0.146500
     32 H5          -0.8630     6.0850    -4.6620 hn         1 4OE       0.336700
@<TRIPOS>BOND
     1    21    20 1   
     2    22    20 ar  
     3    22    23 ar  
     4    20    19 ar  
     5    23    17 ar  
     6    19    18 ar  
     7    17    18 ar  
     8    17    16 1   
     9    15    16 1   
    10    15    14 1   
    11    16    12 2   
    12    14    13 2   
    13    12    13 1   
    14    12    11 1   
    15     1     2 1   
    16     6    11 ar  
    17     6     5 ar  
    18    11    10 ar  
    19     3     2 1   
    20     2     5 1   
    21     2     4 1   
    22     5     7 ar  
    23    10     9 ar  
    24     7     9 ar  
    25     7     8 1   
    26     6    24 1   
    27     9    25 1   
    28    10    26 1   
    29    13    27 1   
    30    18    28 1   
    31    19    29 1   
    32    22    30 1   
    33    23    31 1   
    34    15    32 1   
@<TRIPOS>SUBSTRUCTURE
     1 4OE         1 TEMP              0 ****  ****    0 ROOT
