@<TRIPOS>MOLECULE
4OE
   32    34     1     0     0
SMALL
bcc


@<TRIPOS>ATOM
      1 FAC        -0.0210    0.4170    0.9890 f         1 4OE     -0.232300
      2 CAW         1.3120    0.2640    0.6890 c3        1 4OE      0.696200
      3 FAD         1.9400    0.3590    1.9060 f         1 4OE     -0.232300
      4 FAE         1.4260   -1.0620    0.3480 f         1 4OE     -0.232300
      5 CAU         1.8410    1.2280   -0.3660 ca        1 4OE     -0.205300
      6 CAM         0.9730    2.1250   -0.9870 ca        1 4OE     -0.059000
      7 CAQ         3.2060    1.2140   -0.7210 ca        1 4OE      0.172900
      8 FAB         4.0640    0.3530   -0.1320 f         1 4OE     -0.119900
      9 CAH         3.6780    2.1090   -1.7000 ca        1 4OE     -0.169000
     10 CAK         2.8000    2.9960   -2.3090 ca        1 4OE     -0.077000
     11 CAS         1.4390    3.0180   -1.9630 ca        1 4OE     -0.008000
     12 CAT         0.5290    3.9500   -2.5710 cc        1 4OE     -0.203300
     13 CAL        -0.6370    4.5280   -1.9270 cc        1 4OE      0.309200
     14 NAN        -1.2600    5.3900   -2.7680 nd        1 4OE     -0.497800
     15 NAO        -0.5620    5.3970   -3.9000 na        1 4OE     -0.010600
     16 CAV         0.5460    4.5350   -3.8610 cd        1 4OE     -0.031300
     17 CAR         1.4380    4.3580   -4.9920 ca        1 4OE     -0.056000
     18 CAI         1.8190    3.0680   -5.3910 ca        1 4OE     -0.087000
     19 CAF         2.6590    2.8850   -6.4830 ca        1 4OE     -0.167000
     20 CAP         3.1290    4.0070   -7.1920 ca        1 4OE      0.139900
     21 FAA         3.9460    3.8370   -8.2570 f         1 4OE     -0.132900
     22 CAG         2.7520    5.3040   -6.7970 ca        1 4OE     -0.167000
     23 CAJ         1.9100    5.4700   -5.7040 ca        1 4OE     -0.087000
     24 H1         -0.0940    2.1300   -0.7070 ha        1 4OE      0.161000
     25 H2          4.7450    2.0960   -1.9700 ha        1 4OE      0.159000
     26 H3          3.1740    3.6940   -3.0760 ha        1 4OE      0.152000
     27 H4         -0.9950    4.3390   -0.9140 h4        1 4OE      0.050100
     28 H6          1.4480    2.1940   -4.8320 ha        1 4OE      0.148000
     29 H7          2.9570    1.8750   -6.8000 ha        1 4OE      0.156500
     30 H8          3.1280    6.1750   -7.3550 ha        1 4OE      0.156500
     31 H9          1.6260    6.4870   -5.3910 ha        1 4OE      0.148000
     32 H5         -0.8560    5.9400   -4.6780 hn        1 4OE      0.326700
@<TRIPOS>BOND
     1    1    2 1   
     2    2    3 1   
     3    2    4 1   
     4    2    5 1   
     5    5    6 ar  
     6    5    7 ar  
     7    6   11 ar  
     8    6   24 1   
     9    7    8 1   
    10    7    9 ar  
    11    9   10 ar  
    12    9   25 1   
    13   10   11 ar  
    14   10   26 1   
    15   11   12 1   
    16   12   13 1   
    17   12   16 2   
    18   13   14 2   
    19   13   27 1   
    20   14   15 1   
    21   15   16 1   
    22   15   32 1   
    23   16   17 1   
    24   17   18 ar  
    25   17   23 ar  
    26   18   19 ar  
    27   18   28 1   
    28   19   20 ar  
    29   19   29 1   
    30   20   21 1   
    31   20   22 ar  
    32   22   23 ar  
    33   22   30 1   
    34   23   31 1   
@<TRIPOS>SUBSTRUCTURE
     1 4OE         1 TEMP              0 ****  ****    0 ROOT
