@<TRIPOS>MOLECULE
4OG
   26    27     1     0     0
SMALL
bcc


@<TRIPOS>ATOM
      1 C4           0.0000     0.0000     0.0000 ca         1 4OG       0.026900
      2 C5           1.4020    -0.0010     2.3960 ca         1 4OG      -0.079000
      3 C6           2.0890     0.0000     1.1890 ca         1 4OG      -0.091000
      4 C7           1.3970     0.0000     0.0000 ca         1 4OG      -0.037000
      5 C8           0.0410     0.0060     2.4180 ca         1 4OG      -0.122000
      6 C9          -0.6950     0.0050     1.2130 ca         1 4OG      -0.094800
      7 N           -2.0940     1.9980     3.1760 nz         1 4OG       0.060400
      8 CA          -3.3430     1.4560     2.6230 c3         1 4OG      -0.196500
      9 CB          -3.1130     0.0170     2.1580 c3         1 4OG       0.055800
     10 C1          -2.1340     0.0100     1.0120 cc         1 4OG      -0.150400
     11 C2          -2.5190     0.0080    -0.2480 cd         1 4OG       0.037600
     12 S3          -1.1440     0.0000    -1.3370 ss         1 4OG      -0.188500
     13 C           -4.4130     1.4760     3.6860 c          1 4OG       0.956600
     14 O1          -5.7060     1.4170     3.3360 o          1 4OG      -0.819800
     15 O2          -4.1030     1.5440     4.8520 o          1 4OG      -0.819800
     16 H1           1.9550    -0.0010     3.3280 ha         1 4OG       0.110000
     17 H2           3.1720    -0.0050     1.1840 ha         1 4OG       0.114000
     18 H3           1.9370     0.0010    -0.9390 ha         1 4OG       0.117000
     19 H4          -0.4810     0.0050     3.3670 ha         1 4OG       0.098000
     20 H8          -3.6590     2.0620     1.7820 hx         1 4OG       0.086700
     21 H9          -2.7140    -0.5680     2.9780 hc         1 4OG       0.057700
     22 H10         -4.0530    -0.4120     1.8320 hc         1 4OG       0.057700
     23 H11         -3.5530     0.0100    -0.5710 h4         1 4OG       0.165000
     24 H6          -1.7280     1.3630     3.8570 hn         1 4OG       0.217800
     25 HN2         -1.4280     2.1170     2.4390 hn         1 4OG       0.217800
     26 H5          -2.2760     2.8820     3.6080 hn         1 4OG       0.217800
@<TRIPOS>BOND
     1     1     4 ar  
     2     1     6 ar  
     3     1    12 1   
     4     2     3 ar  
     5     2     5 ar  
     6     2    16 1   
     7     3     4 ar  
     8     3    17 1   
     9     4    18 1   
    10     5     6 ar  
    11     5    19 1   
    12     6    10 1   
    13     7     8 1   
    14     7    24 1   
    15     7    25 1   
    16     7    26 1   
    17     8     9 1   
    18     8    13 1   
    19     8    20 1   
    20     9    10 1   
    21     9    21 1   
    22     9    22 1   
    23    10    11 2   
    24    11    12 1   
    25    11    23 1   
    26    13    14 1   
    27    13    15 1   
@<TRIPOS>SUBSTRUCTURE
     1 4OG         1 TEMP              0 ****  ****    0 ROOT
