@<TRIPOS>MOLECULE
molecule
   26    27     1     0     0
SMALL
bcc


@<TRIPOS>ATOM
      1 C4           0.0000     0.0000     0.0000 ca         1 4OG      -0.015100
      2 C5           1.4020    -0.0010     2.3960 ca         1 4OG      -0.114000
      3 C6           2.0890     0.0000     1.1890 ca         1 4OG      -0.118000
      4 C7           1.3970     0.0000     0.0000 ca         1 4OG      -0.080000
      5 C8           0.0410     0.0060     2.4180 ca         1 4OG      -0.140000
      6 C9          -0.6950     0.0050     1.2130 ca         1 4OG      -0.099800
      7 N           -2.0940     1.9980     3.1760 nz         1 4OG      -0.791600
      8 CA          -3.3430     1.4560     2.6230 c3         1 4OG      -0.013500
      9 CB          -3.1130     0.0170     2.1580 c3         1 4OG      -0.024200
     10 C1          -2.1340     0.0100     1.0120 cc         1 4OG      -0.139400
     11 C2          -2.5190     0.0080    -0.2480 cd         1 4OG      -0.050400
     12 S3          -1.1440     0.0000    -1.3370 ss         1 4OG      -0.072500
     13 C           -4.4130     1.4760     3.6860 c          1 4OG       0.868600
     14 O1          -5.7060     1.4170     3.3360 o          1 4OG      -0.777300
     15 O2          -4.1030     1.5440     4.8520 o          1 4OG      -0.777300
     16 H1           1.9550    -0.0010     3.3280 ha         1 4OG       0.139000
     17 H2           3.1720    -0.0050     1.1840 ha         1 4OG       0.144000
     18 H3           1.9370     0.0010    -0.9390 ha         1 4OG       0.144000
     19 H4          -0.4810     0.0050     3.3670 ha         1 4OG       0.117000
     20 H8          -3.6590     2.0620     1.7820 hx         1 4OG       0.104700
     21 H9          -2.7140    -0.5680     2.9780 hc         1 4OG       0.091700
     22 H10         -4.0530    -0.4120     1.8320 hc         1 4OG       0.091700
     23 H11         -3.5530     0.0100    -0.5710 h4         1 4OG       0.189000
     24 H6          -1.7280     1.3630     3.8570 hn         1 4OG       0.441133
     25 HN2         -1.4280     2.1170     2.4390 hn         1 4OG       0.441133
     26 H5          -2.2760     2.8820     3.6080 hn         1 4OG       0.441133
@<TRIPOS>BOND
     1     3     4 ar
     2     3     2 ar
     3     4     1 ar
     4     2     5 ar
     5     1    12 1
     6     1     6 ar
     7    12    11 1
     8     5     6 ar
     9     6    10 1
    10    11    10 2
    11    10     9 1
    12     9     8 1
    13    14    13 1
    14     8    13 1
    15     8     7 1
    16    13    15 1
    17     2    16 1
    18     3    17 1
    19     4    18 1
    20     5    19 1
    21     7    26 1
    22     7    24 1
    23     8    20 1
    24     9    21 1
    25     9    22 1
    26    11    23 1
    27    25     7 1
@<TRIPOS>SUBSTRUCTURE
     1 4OG         1 TEMP              0 ****  ****    0 ROOT
