@<TRIPOS>MOLECULE
molecule
   46    49     1     0     0
SMALL
bcc


@<TRIPOS>ATOM
      1 CAA          0.0000     0.0000     0.0000 c3         1 4OH      -0.060700
      2 CAB          1.5160     0.0000     0.0000 c3         1 4OH      -0.059700
      3 CAC         -0.4460     1.3310     0.6170 c3         1 4OH      -0.020400
      4 CAD         -0.5680    -0.0760    -1.4170 c3         1 4OH      -0.072400
      5 CAE          1.9550     0.0000     1.4910 c3         1 4OH      -0.073000
      6 CAF          2.1890    -1.2660    -0.5410 c3         1 4OH       0.150100
      7 CAG         -1.9400     1.4630     0.5380 ca         1 4OH      -0.075300
      8 CAH          0.0640     1.4850     2.0410 c3         1 4OH      -0.076400
      9 CAI         -2.0810    -0.2600    -1.3150 c3         1 4OH      -0.036100
     10 CAJ          3.4360    -0.3520     1.4200 c3         1 4OH       0.134100
     11 CAK          1.5990     1.3460     2.0850 c3         1 4OH      -0.063400
     12 CAL          1.2130    -1.1070     2.2430 c3         1 4OH      -0.083100
     13 CAM          3.5890    -1.2290     0.1290 c3         1 4OH       0.096100
     14 OAN          2.3030    -1.2080    -1.9650 oh         1 4OH      -0.581800
     15 CAO         -2.6890     0.7330    -0.3600 ca         1 4OH      -0.058300
     16 CAP         -2.5670     2.3530     1.3990 ca         1 4OH      -0.118000
     17 OAQ          3.8270    -1.0880     2.5810 oh         1 4OH      -0.602800
     18 OAR          4.5380    -0.6240    -0.7510 oh         1 4OH      -0.583800
     19 CAS         -4.0680     0.9030    -0.4000 ca         1 4OH      -0.158000
     20 CAT         -3.9340     2.5210     1.3630 ca         1 4OH      -0.152000
     21 CAU         -4.6920     1.7940     0.4560 ca         1 4OH       0.102100
     22 OAV         -6.0410     1.9550     0.4090 oh         1 4OH      -0.523100
     23 HAA         -0.3710    -0.8270     0.5940 hc         1 4OH       0.065700
     24 HAB          1.8970     0.8790    -0.5060 hc         1 4OH       0.083700
     25 HAC         -0.0140     2.1290     0.0250 hc         1 4OH       0.059700
     26 HAD         -0.1330    -0.9200    -1.9390 hc         1 4OH       0.053200
     27 HADA        -0.3480     0.8420    -1.9480 hc         1 4OH       0.053200
     28 HAF          1.6430    -2.1490    -0.2310 h1         1 4OH       0.046700
     29 HAH         -0.2030     2.4720     2.3990 hc         1 4OH       0.050700
     30 HAHA        -0.3710     0.7020     2.6500 hc         1 4OH       0.050700
     31 HAI         -2.2920    -1.2630    -0.9640 hc         1 4OH       0.051200
     32 HAIA        -2.5210    -0.1220    -2.2960 hc         1 4OH       0.051200
     33 HAJ          4.0270     0.5510     1.3270 h1         1 4OH       0.056700
     34 HAK          2.0550     2.1360     1.5010 hc         1 4OH       0.047200
     35 HAKA         1.9420     1.3950     3.1120 hc         1 4OH       0.047200
     36 HAL          1.5360    -1.1200     3.2770 hc         1 4OH       0.042700
     37 HALA         0.1460    -0.9210     2.2010 hc         1 4OH       0.042700
     38 HALB         1.4310    -2.0640     1.7850 hc         1 4OH       0.042700
     39 HAM          3.9020    -2.2320     0.3950 h1         1 4OH       0.047700
     40 HOAN         2.3510    -2.0830    -2.3130 ho         1 4OH       0.396000
     41 HAP         -1.9760     2.9210     2.1070 ha         1 4OH       0.135000
     42 HOAQ         4.6510    -0.7590     2.8990 ho         1 4OH       0.401000
     43 HOAR         5.3260    -1.1420    -0.7680 ho         1 4OH       0.398000
     44 HAS         -4.6580     0.3350    -1.1080 ha         1 4OH       0.138000
     45 HAT         -4.4150     3.2200     2.0370 ha         1 4OH       0.139000
     46 HOAV        -6.2580     2.5900    -0.2540 ho         1 4OH       0.417000
@<TRIPOS>BOND
     1     2     1 1
     2     1     4 1
     3     1     3 1
     4     1    23 1
     5     6     2 1
     6     5     2 1
     7     2    24 1
     8     8     3 1
     9     3     7 1
    10     3    25 1
    11     4     9 1
    12     4    26 1
    13     4    27 1
    14    10     5 1
    15    12     5 1
    16     5    11 1
    17    13     6 1
    18    14     6 1
    19     6    28 1
    20    15     7 ar
    21     7    16 ar
    22    11     8 1
    23     8    29 1
    24     8    30 1
    25     9    15 1
    26     9    31 1
    27     9    32 1
    28    13    10 1
    29    17    10 1
    30    10    33 1
    31    11    34 1
    32    11    35 1
    33    12    36 1
    34    12    37 1
    35    12    38 1
    36    18    13 1
    37    13    39 1
    38    14    40 1
    39    15    19 ar
    40    16    20 ar
    41    16    41 1
    42    17    42 1
    43    18    43 1
    44    19    21 ar
    45    19    44 1
    46    21    20 ar
    47    20    45 1
    48    21    22 1
    49    22    46 1
@<TRIPOS>SUBSTRUCTURE
     1 4OH         1 TEMP              0 ****  ****    0 ROOT
