@<TRIPOS>MOLECULE
4OH
   46    49     1     0     0
SMALL
bcc


@<TRIPOS>ATOM
      1 CAA        -0.0440   -0.0640    0.0390 c3        1 4OH     -0.045700
      2 CAB         1.4650   -0.1230    0.0990 c3        1 4OH     -0.092700
      3 CAC        -0.4930    1.2880    0.6220 c3        1 4OH     -0.008400
      4 CAD        -0.5650   -0.1810   -1.3820 c3        1 4OH     -0.078400
      5 CAE         1.9580   -0.0700    1.5630 c3        1 4OH     -0.042000
      6 CAF         2.2000   -1.3250   -0.5050 c3        1 4OH      0.117100
      7 CAG        -1.9850    1.4050    0.5590 ca        1 4OH     -0.101300
      8 CAH         0.0710    1.5180    2.0210 c3        1 4OH     -0.073400
      9 CAI        -2.0760   -0.2460   -1.3760 c3        1 4OH     -0.037100
     10 CAJ         3.4780   -0.2910    1.3720 c3        1 4OH      0.147100
     11 CAK         1.5700    1.2860    2.1260 c3        1 4OH     -0.063400
     12 CAL         1.4050   -1.1840    2.4350 c3        1 4OH     -0.081100
     13 CAM         3.5620   -1.3590    0.2460 c3        1 4OH      0.064100
     14 OAN         2.4000   -1.2310   -1.8990 oh        1 4OH     -0.597800
     15 CAO        -2.7150    0.7010   -0.4180 ca        1 4OH     -0.036300
     16 CAP        -2.6700    2.2570    1.4330 ca        1 4OH     -0.091000
     17 OAQ         4.0620   -0.7570    2.5700 oh        1 4OH     -0.589800
     18 OAR         4.6300   -0.9950   -0.6070 oh        1 4OH     -0.606800
     19 CAS        -4.1020    0.8570   -0.5070 ca        1 4OH     -0.162000
     20 CAT        -4.0500    2.4180    1.3570 ca        1 4OH     -0.215000
     21 CAU        -4.7650    1.7130    0.3810 ca        1 4OH      0.124100
     22 OAV        -6.1300    1.8160    0.2360 oh        1 4OH     -0.499100
     23 HAA        -0.4830   -0.8980    0.6520 hc        1 4OH      0.063700
     24 HAB         1.8580    0.7950   -0.4310 hc        1 4OH      0.052700
     25 HAC        -0.0740    2.1000   -0.0450 hc        1 4OH      0.054700
     26 HAD        -0.2210    0.6990   -1.9850 hc        1 4OH      0.052200
     27 HADA       -0.1410   -1.1000   -1.8660 hc        1 4OH      0.052200
     28 HAF         1.6290   -2.2820   -0.3650 h1        1 4OH      0.088700
     29 HAH        -0.1270    2.5800    2.3250 hc        1 4OH      0.044700
     30 HAHA       -0.4670    0.8560    2.7490 hc        1 4OH      0.044700
     31 HAI        -2.4020   -1.2880   -1.1020 hc        1 4OH      0.054200
     32 HAIA       -2.4610   -0.0440   -2.4120 hc        1 4OH      0.054200
     33 HAJ         3.9810    0.6570    1.0390 h1        1 4OH      0.057700
     34 HAK         2.1150    2.0920    1.5680 hc        1 4OH      0.047700
     35 HAKA        1.8800    1.3490    3.2020 hc        1 4OH      0.047700
     36 HAL         0.3020   -1.0870    2.5740 hc        1 4OH      0.043367
     37 HALA        1.6220   -2.1790    1.9770 hc        1 4OH      0.043367
     38 HALB        1.8940   -1.1450    3.4400 hc        1 4OH      0.043367
     39 HAM         3.7480   -2.3760    0.6840 h1        1 4OH      0.057700
     40 HOAN        2.8180   -0.3780   -2.0780 ho        1 4OH      0.409000
     41 HAP        -2.1200    2.8210    2.2020 ha        1 4OH      0.133000
     42 HOAQ        5.0060   -0.8550    2.3890 ho        1 4OH      0.409000
     43 HOAR        4.6250   -1.6220   -1.3430 ho        1 4OH      0.417000
     44 HAS        -4.6800    0.3120   -1.2670 ha        1 4OH      0.149000
     45 HAT        -4.5710    3.0900    2.0530 ha        1 4OH      0.133000
     46 HOAV       -6.4530    2.4360    0.9060 ho        1 4OH      0.418000
@<TRIPOS>BOND
     1    1    2 1   
     2    1    3 1   
     3    1    4 1   
     4    1   23 1   
     5    2    5 1   
     6    2    6 1   
     7    2   24 1   
     8    3    7 1   
     9    3    8 1   
    10    3   25 1   
    11    4    9 1   
    12    4   26 1   
    13    4   27 1   
    14    5   10 1   
    15    5   11 1   
    16    5   12 1   
    17    6   13 1   
    18    6   14 1   
    19    6   28 1   
    20    7   15 ar  
    21    7   16 ar  
    22    8   11 1   
    23    8   29 1   
    24    8   30 1   
    25    9   15 1   
    26    9   31 1   
    27    9   32 1   
    28   10   13 1   
    29   10   17 1   
    30   10   33 1   
    31   11   34 1   
    32   11   35 1   
    33   12   36 1   
    34   12   37 1   
    35   12   38 1   
    36   13   18 1   
    37   13   39 1   
    38   14   40 1   
    39   15   19 ar  
    40   16   20 ar  
    41   16   41 1   
    42   17   42 1   
    43   18   43 1   
    44   19   21 ar  
    45   19   44 1   
    46   20   21 ar  
    47   20   45 1   
    48   21   22 1   
    49   22   46 1   
@<TRIPOS>SUBSTRUCTURE
     1 4OH         1 TEMP              0 ****  ****    0 ROOT
