@<TRIPOS>MOLECULE
4OJ
   19    18     1     0     0
SMALL
bcc


@<TRIPOS>ATOM
      1 C1         -0.0080   -0.4510   -0.1390 ca        1 4OJ     -0.065000
      2 C2          1.3850   -0.4780   -0.1640 ca        1 4OJ     -0.341000
      3 C3          2.0850   -0.0370    0.9690 ca        1 4OJ     -0.082000
      4 C4          1.4250    0.4140    2.0860 ca        1 4OJ     -0.301000
      5 C5         -0.0160    0.4560    2.1450 ca        1 4OJ      0.317000
      6 C6         -0.7160   -0.0040    0.9650 ca        1 4OJ     -0.288000
      7 O12        -0.6340    0.8740    3.1800 o         1 4OJ     -0.562000
      8 P13        -0.6530    1.7080    5.2810 p3        1 4OJ      2.503000
      9 O1P        -1.3760    2.9670    4.9820 o         1 4OJ     -1.177333
     10 O2P        -1.4060    0.6040    5.9210 o         1 4OJ     -1.177333
     11 C7         -2.1920    0.0100    0.9530 c3        1 4OJ     -0.129000
     12 O3P         0.8150    1.7660    5.4750 o         1 4OJ     -1.177333
     13 H1         -0.5650   -0.7960   -1.0260 ha        1 4OJ      0.061000
     14 H2          1.9230   -0.8350   -1.0480 ha        1 4OJ      0.069000
     15 H3          3.1860   -0.0570    0.9540 ha        1 4OJ      0.065000
     16 H4          1.9640    0.7620    2.9790 ha        1 4OJ      0.143000
     17 H71C       -2.5810    0.4060    1.9260 hc        1 4OJ      0.048000
     18 H72C       -2.6030   -1.0210    0.7980 hc        1 4OJ      0.048000
     19 H73C       -2.5830    0.6540    0.1240 hc        1 4OJ      0.048000
@<TRIPOS>BOND
     1    1    2 1   
     2    1    6 1   
     3    1   13 1   
     4    2    3 1   
     5    2   14 1   
     6    3    4 1   
     7    3   15 1   
     8    4    5 1   
     9    4   16 1   
    10    5    6 1   
    11    5    7 1   
    12    6   11 1   
    13    8    9 1   
    14    8   10 1   
    15    8   12 1   
    16   11   17 1   
    17   11   18 1   
    18   11   19 1   
@<TRIPOS>SUBSTRUCTURE
     1 4OJ         1 TEMP              0 ****  ****    0 ROOT
