@<TRIPOS>MOLECULE
molecule
   19    19     1     0     0
SMALL
bcc


@<TRIPOS>ATOM
      1 C1           0.0000     0.0000     0.0000 ca         1 4OJ      -0.136000
      2 C2           1.3830     0.0000     0.0000 ca         1 4OJ      -0.213000
      3 C3           2.0770     0.0000     1.1950 ca         1 4OJ      -0.137000
      4 C4           1.3900    -0.0010     2.3940 ca         1 4OJ      -0.155000
      5 C5           0.0030    -0.0000     2.3970 ca         1 4OJ       0.245100
      6 C6          -0.6910     0.0010     1.1960 ca         1 4OJ      -0.120300
      7 O12         -0.6740    -0.0010     3.5750 os         1 4OJ      -0.443500
      8 P13         -0.6710     1.4180     4.3350 p5         1 4OJ       1.129900
      9 O1P         -1.1880     2.4660     3.4250 o          1 4OJ      -0.887833
     10 O2P         -1.6080     1.3320     5.6410 o          1 4OJ      -0.887833
     11 C7          -2.1980     0.0010     1.1960 c3         1 4OJ      -0.030800
     12 O3P          0.8330     1.7880     4.7760 o          1 4OJ      -0.887833
     13 H1          -0.5410     0.0000    -0.9380 ha         1 4OJ       0.086000
     14 H2           1.9230     0.0000    -0.9390 ha         1 4OJ       0.077000
     15 H3           3.1600    -0.0000     1.1920 ha         1 4OJ       0.089000
     16 H4           1.9340    -0.0010     3.3310 ha         1 4OJ       0.170000
     17 H71C        -2.5590    -0.3760     0.2460 hc         1 4OJ       0.034367
     18 H72C        -2.5590     1.0110     1.3440 hc         1 4OJ       0.034367
     19 H73C        -2.5590    -0.6330     1.9970 hc         1 4OJ       0.034367
@<TRIPOS>BOND
     1     1     2 ar  
     2     1     6 ar  
     3     2     3 ar  
     4     3     4 ar  
     5     4     5 ar  
     6     5     6 ar  
     7     5     7 1   
     8     6    11 1   
     9     7     8 1   
    10     8     9 1   
    11     8    10 1   
    12     8    12 1   
    13     1    13 1   
    14     2    14 1   
    15     3    15 1   
    16     4    16 1   
    17    11    17 1   
    18    11    18 1   
    19    11    19 1   
@<TRIPOS>SUBSTRUCTURE
     1 4OJ         1 TEMP              0 ****  ****    0 ROOT
