@<TRIPOS>MOLECULE
4OK
   52    62     1     0     0
SMALL
bcc


@<TRIPOS>ATOM
      1 C13          0.0000     0.0000     0.0000 c2         1 4OK      -0.178000
      2 C18         -4.4920    -0.0040     8.3020 ca         1 4OK      -0.113000
      3 C17         -5.6050     0.0000     7.4720 ca         1 4OK      -0.113000
      4 C16          0.7940    -0.0040     4.5710 c2         1 4OK      -0.033000
      5 C15          1.4170     0.0000     2.3920 c2         1 4OK      -0.176000
      6 C19         -0.7750    -0.0020    -1.2570 c1         1 4OK       0.342000
      7 C21         -3.8980     0.5440     0.9810 c3         1 4OK      -0.049000
      8 C22         -2.1470    -0.5610     2.1230 DU         1 4OK      -0.276000
      9 C23         -4.1550     1.3970     2.2250 c3         1 4OK      -0.006000
     10 C24         -2.4200     0.3020     3.3560 DU         1 4OK       0.196000
     11 C11         -3.0560    -0.0040     6.3710 ca         1 4OK       0.032000
     12 C12         -1.6890    -0.0070     5.8540 c2         1 4OK      -0.145000
     13 C1          -4.1680     0.0000     5.5430 ca         1 4OK      -0.146000
     14 C2           1.4000     0.0000     0.0000 c2         1 4OK      -0.088000
     15 C3           2.0940     0.0000     1.1740 c2         1 4OK      -0.085000
     16 C4          -5.4430     0.0020     6.0930 ca         1 4OK      -0.107000
     17 C5          -1.6260     0.0080     4.4630 DU         1 4OK       0.464000
     18 C6          -0.6950     0.0060     1.2080 DU         1 4OK      -0.005000
     19 C7          -0.5180    -0.0190     6.6070 c2         1 4OK       0.026000
     20 C8          -3.2180    -0.0060     7.7530 ca         1 4OK      -0.120000
     21 C9          -0.3930     0.0100     3.8220 c2         1 4OK      -0.254000
     22 C10          0.0120     0.0120     2.4030 c2         1 4OK      -0.108000
     23 C14          0.7230    -0.0170     5.9760 c2         1 4OK      -0.327000
     24 N25          1.8600     0.0010     3.7000 na         1 4OK       0.406000
     25 N26         -2.5280     0.0990     0.8970 n2         1 4OK      -0.240000
     26 N27          1.9940    -0.3200     7.9680 nz         1 4OK       0.833000
     27 O28         -1.5160     0.8910    -1.4960 o          1 4OK      -0.100000
     28 O29          2.4800    -1.3180     6.1930 o          1 4OK      -0.289000
     29 O30         -3.7570     0.7480     3.4110 os         1 4OK      -0.239000
     30 H1          -4.1300     1.1310     0.1010 h1         1 4OK       0.076000
     31 H2          -4.5460    -0.3230     1.0130 h1         1 4OK       0.076000
     32 H3          -1.0890    -0.7880     2.0830 DU         1 4OK       0.213500
     33 H4          -2.7070    -1.4840     2.2120 ha         1 4OK       0.069000
     34 H5          -5.2140     1.6170     2.2850 h1         1 4OK       0.062000
     35 H6          -3.6040     2.3250     2.1320 h1         1 4OK       0.062000
     36 H7          -1.7650     1.1650     3.3310 ha         1 4OK       0.156000
     37 H8          -2.2090    -0.2800     4.2440 DU         1 4OK      -0.156500
     38 H9          -4.4940    -0.1030     4.5150 ha         1 4OK       0.207000
     39 H10          1.9600     0.9250    -0.0710 ha         1 4OK       0.160000
     40 H11          3.1710    -0.0080     1.0590 ha         1 4OK       0.125000
     41 H12         -6.3610    -0.0170     5.5170 ha         1 4OK       0.129000
     42 H13         -2.5390    -0.0120     3.8800 DU         1 4OK      -0.156500
     43 H14         -1.1480    -0.9640     1.3720 DU         1 4OK       0.213500
     44 H15         -0.5700     0.0120     7.6880 ha         1 4OK       0.090000
     45 H16         -2.6960     0.0530     8.7000 ha         1 4OK       0.130000
     46 H17          2.8270     0.0220     3.9540 hn         1 4OK       0.079000
     47 H18          1.8370     0.6670     8.0180 hn         1 4OK       0.036333
     48 H19          2.9650    -0.5110     8.1180 hn         1 4OK       0.036333
     49 C20          1.6490    -0.7500     6.8060 c2         1 4OK       0.104000
     50 Cl1         -7.3480     0.0280     7.9600 cl         1 4OK       0.087000
     51 H273         1.4510    -0.7810     8.6700 hn         1 4OK       0.036333
     52 Cl2         -4.8610     0.4260    10.0720 cl         1 4OK       0.060000
@<TRIPOS>BOND
     1     1     6 1   
     2     1    14 1   
     3     1    18 1   
     4     2     3 1   
     5     2    20 1   
     6     2    52 1   
     7     3    16 1   
     8     3    50 1   
     9     4    21 1   
    10     4    23 1   
    11     4    24 1   
    12     5    15 1   
    13     5    22 1   
    14     5    24 1   
    15     6    27 1   
    16     7     9 1   
    17     7    25 1   
    18     7    30 1   
    19     7    31 1   
    20     8    10 1   
    21     8    18 1   
    22     8    25 1   
    23     8    32 1   
    24     8    33 1   
    25     8    43 1   
    26     9    29 1   
    27     9    34 1   
    28     9    35 1   
    29    10    17 1   
    30    10    29 1   
    31    10    36 1   
    32    10    37 1   
    33    10    42 1   
    34    11    12 1   
    35    11    13 1   
    36    11    20 1   
    37    12    17 1   
    38    12    19 1   
    39    13    16 1   
    40    13    38 1   
    41    14    15 1   
    42    14    39 1   
    43    15    40 1   
    44    16    41 1   
    45    17    21 1   
    46    17    37 1   
    47    17    42 1   
    48    18    22 1   
    49    18    32 1   
    50    18    43 1   
    51    19    23 1   
    52    19    44 1   
    53    20    45 1   
    54    21    22 1   
    55    23    49 1   
    56    24    46 1   
    57    26    47 1   
    58    26    48 1   
    59    26    49 1   
    60    26    51 1   
    61    28    49 1   
    62    37    42 1   
@<TRIPOS>SUBSTRUCTURE
     1 4OK         1 TEMP              0 ****  ****    0 ROOT
