@<TRIPOS>MOLECULE
molecule
   52    56     1     0     0
SMALL
bcc


@<TRIPOS>ATOM
      1 C13          0.0000     0.0000     0.0000 ca         1 4OK      -0.211600
      2 C18         -4.4920    -0.0040     8.3020 ca         1 4OK       0.036400
      3 C17         -5.6050     0.0000     7.4720 ca         1 4OK       0.051400
      4 C16          0.7940    -0.0040     4.5710 ca         1 4OK       0.096800
      5 C15          1.4170     0.0000     2.3920 ca         1 4OK      -0.004200
      6 C19         -0.7750    -0.0020    -1.2570 c          1 4OK       0.651700
      7 C21         -3.8980     0.5440     0.9810 c3         1 4OK      -0.067500
      8 C22         -2.1470    -0.5610     2.1230 c3         1 4OK      -0.067500
      9 C23         -4.1550     1.3970     2.2250 c3         1 4OK       0.091900
     10 C24         -2.4200     0.3020     3.3560 c3         1 4OK       0.091900
     11 C11         -3.0560    -0.0040     6.3710 cp         1 4OK       0.005000
     12 C12         -1.6890    -0.0070     5.8540 cp         1 4OK      -0.120000
     13 C1          -4.1680     0.0000     5.5430 ca         1 4OK      -0.132000
     14 C2           1.4000     0.0000     0.0000 ca         1 4OK      -0.091000
     15 C3           2.0940     0.0000     1.1740 ca         1 4OK      -0.148000
     16 C4          -5.4430     0.0020     6.0930 ca         1 4OK      -0.130000
     17 C5          -1.6260     0.0080     4.4630 ca         1 4OK       0.238000
     18 C6          -0.6950     0.0060     1.2080 ca         1 4OK      -0.010000
     19 C7          -0.5180    -0.0190     6.6070 ca         1 4OK      -0.026000
     20 C8          -3.2180    -0.0060     7.7530 ca         1 4OK      -0.130000
     21 C9          -0.3930     0.0100     3.8220 cp         1 4OK      -0.208000
     22 C10          0.0120     0.0120     2.4030 cp         1 4OK      -0.142000
     23 C14          0.7230    -0.0170     5.9760 ca         1 4OK      -0.314600
     24 N25          1.8600     0.0010     3.7000 na         1 4OK      -0.126300
     25 N26         -2.5280     0.0990     0.8970 n          1 4OK      -0.426800
     26 N27          1.9940    -0.3200     7.9680 nz         1 4OK      -0.666400
     27 O28         -1.5160     0.8910    -1.4960 o          1 4OK      -0.313100
     28 O29          2.4800    -1.3180     6.1930 o          1 4OK      -0.485100
     29 O30         -3.7570     0.7480     3.4110 os         1 4OK      -0.399600
     30 H1          -4.1300     1.1310     0.1010 h1         1 4OK       0.103200
     31 H2          -4.5460    -0.3230     1.0130 h1         1 4OK       0.103200
     32 H3          -1.0890    -0.7880     2.0830 h1         1 4OK       0.103200
     33 H4          -2.7070    -1.4840     2.2120 h1         1 4OK       0.103200
     34 H5          -5.2140     1.6170     2.2850 h1         1 4OK       0.050950
     35 H6          -3.6040     2.3250     2.1320 h1         1 4OK       0.050950
     36 H7          -1.7650     1.1650     3.3310 h1         1 4OK       0.050950
     37 H8          -2.2090    -0.2800     4.2440 h1         1 4OK       0.050950
     38 H9          -4.4940    -0.1030     4.5150 ha         1 4OK       0.224000
     39 H10          1.9600     0.9250    -0.0710 ha         1 4OK       0.194000
     40 H11          3.1710    -0.0080     1.0590 ha         1 4OK       0.159000
     41 H12         -6.3610    -0.0170     5.5170 ha         1 4OK       0.166000
     42 H13         -2.5390    -0.0120     3.8800 ha         1 4OK       0.044000
     43 H14         -1.1480    -0.9640     1.3720 ha         1 4OK       0.226000
     44 H15         -0.5700     0.0120     7.6880 ha         1 4OK       0.123000
     45 H16         -2.6960     0.0530     8.7000 ha         1 4OK       0.161000
     46 H17          2.8270     0.0220     3.9540 hn         1 4OK       0.317700
     47 H18          1.8370     0.6670     8.0180 hn         1 4OK       0.473800
     48 H19          2.9650    -0.5110     8.1180 hn         1 4OK       0.473800
     49 C20          1.6490    -0.7500     6.8060 c          1 4OK       0.513700
     50 Cl1         -7.3480     0.0280     7.9600 cl         1 4OK      -0.090400
     51 H273         1.4510    -0.7810     8.6700 hn         1 4OK       0.473800
     52 Cl2         -4.8610     0.4260    10.0720 cl         1 4OK      -0.119400
@<TRIPOS>BOND
     1    50     3 1
     2    16     3 ar
     3    16    13 ar
     4     3     2 ar
     5    13    11 ar
     6     2    52 1
     7     2    20 ar
     8    11    20 ar
     9    11    12 1
    10    26    49 1
    11    19    12 ar
    12    19    23 ar
    13    12    17 ar
    14    49    23 1
    15    49    28 2
    16    23     4 ar
    17    17    21 ar
    18     4    21 ar
    19     4    24 1
    20    21    22 1
    21    24     5 1
    22    22     5 ar
    23    22    18 ar
    24     5    15 ar
    25    18     1 ar
    26    15    14 ar
    27     1    14 ar
    28     1     6 1
    29    27     6 2
    30     6    25 1
    31    25     7 1
    32    25     8 1
    33     7     9 1
    34     8    10 1
    35     9    29 1
    36    10    29 1
    37     7    30 1
    38     7    31 1
    39     8    32 1
    40     8    33 1
    41     9    34 1
    42     9    35 1
    43    10    36 1
    44    10    37 1
    45    13    38 1
    46    14    39 1
    47    15    40 1
    48    16    41 1
    49    17    42 1
    50    18    43 1
    51    19    44 1
    52    20    45 1
    53    24    46 1
    54    26    47 1
    55    26    48 1
    56    51    26 1
@<TRIPOS>SUBSTRUCTURE
     1 4OK         1 TEMP              0 ****  ****    0 ROOT
