@<TRIPOS>MOLECULE
4OL
   92    95     1     0     0
SMALL
bcc


@<TRIPOS>ATOM
      1 C1           0.0000     0.0000     0.0000 c          1 4OL       0.585300
      2 C2           1.4790     0.0000     0.0000 cc         1 4OL      -0.160100
      3 C6           3.5590    -0.0000     1.1860 cd         1 4OL      -0.033000
      4 C5           4.2310    -0.0010     0.0020 cc         1 4OL      -0.212700
      5 C4           3.5040    -0.0070    -1.2090 c          1 4OL       0.553700
      6 C7           2.1550     0.0000     1.1830 cd         1 4OL      -0.198000
      7 C12         -2.1390     0.0180     1.1680 c3         1 4OL       0.057500
      8 C13         -2.6490     0.0310     2.6100 c3         1 4OL      -0.080400
      9 C14         -4.1780     0.0370     2.6110 c3         1 4OL       0.048500
     10 C16         -4.9930    -1.1080     4.6020 c          1 4OL       0.611800
     11 C17         -4.7990     1.3180     4.7110 c3         1 4OL       0.053500
     12 C18         -6.2000     1.8910     4.4820 c3         1 4OL      -0.048900
     13 C23         -3.5520    -3.0210     4.0470 cc         1 4OL      -0.177500
     14 C24         -3.3240    -4.2440     3.3990 cc         1 4OL      -0.032000
     15 C25         -4.3120    -4.7930     2.6390 cd         1 4OL      -0.215700
     16 C26         -5.5490    -4.1220     2.5150 c          1 4OL       0.563700
     17 O55         -7.0270     6.1960     4.0120 o          1 4OL      -0.621100
     18 C28         -7.4410     6.2020     5.1550 c          1 4OL       0.611800
     19 C34         -7.4720     7.4660     5.9220 cc         1 4OL      -0.163600
     20 C39         -6.4050     7.8150     6.6950 cd         1 4OL      -0.177500
     21 C38         -6.4320     9.0140     7.4250 cd         1 4OL      -0.032000
     22 C37         -7.5280     9.8170     7.3520 cc         1 4OL      -0.215700
     23 C36         -8.6200     9.4320     6.5430 c          1 4OL       0.563700
     24 O47         -9.6060    10.1450     6.4720 o          1 4OL      -0.686000
     25 N35         -8.5700     8.2800     5.8470 n          1 4OL       0.274500
     26 O46         -9.6670     7.9040     5.0350 oh         1 4OL      -0.462600
     27 N21         -7.8710     5.0580     5.7230 n          1 4OL      -0.136300
     28 C29         -8.4710     5.0840     7.0590 c3         1 4OL       0.048500
     29 C30         -7.3780     4.8970     8.1130 c3         1 4OL      -0.080400
     30 C31         -8.0050     4.9230     9.5080 c3         1 4OL       0.057500
     31 N32         -6.9580     4.7430    10.5170 ns         1 4OL      -0.195400
     32 C33         -7.2790     4.7320    11.8260 c          1 4OL       0.585300
     33 O53         -8.4360     4.8730    12.1700 o          1 4OL      -0.609100
     34 C40         -6.2210     4.5500    12.8450 cc         1 4OL      -0.160100
     35 N45         -6.5540     4.5350    14.1730 n          1 4OL       0.303500
     36 O50         -7.9060     4.6940    14.5600 oh         1 4OL      -0.427100
     37 C44         -5.6050     4.3700    15.1150 c          1 4OL       0.553700
     38 O51         -5.9140     4.3580    16.2950 o          1 4OL      -0.695500
     39 C43         -4.2530     4.2110    14.7380 cc         1 4OL      -0.212700
     40 C42         -3.9190     4.2250    13.4180 cd         1 4OL      -0.033000
     41 C41         -4.9260     4.3930    12.4550 cd         1 4OL      -0.198000
     42 C19         -6.3380     3.2170     5.2330 c3         1 4OL      -0.048900
     43 N15         -4.6660     0.0500     3.9920 n          1 4OL      -0.136300
     44 O54         -5.4830    -1.0920     5.7140 o          1 4OL      -0.621100
     45 C22         -4.7570    -2.3970     3.9170 cd         1 4OL      -0.163600
     46 N27         -5.7460    -2.9490     3.1460 n          1 4OL       0.274500
     47 O48         -6.9870    -2.2810     3.0130 oh         1 4OL      -0.462600
     48 N9          -0.6740     0.0120     1.1670 ns         1 4OL      -0.195400
     49 O8          -0.6080    -0.0050    -1.0520 o          1 4OL      -0.609100
     50 N3           2.1570    -0.0060    -1.1890 n          1 4OL       0.303500
     51 O9           4.0980    -0.0060    -2.2750 o          1 4OL      -0.695500
     52 O10          1.4380    -0.0110    -2.4090 oh         1 4OL      -0.427100
     53 H1           4.1030     0.0020     2.1220 ha         1 4OL       0.109000
     54 H2           5.3140    -0.0020    -0.0110 ha         1 4OL       0.139500
     55 H3           1.6110     0.0000     2.1200 ha         1 4OL       0.119000
     56 H4          -2.4970     0.9000     0.6510 h1         1 4OL       0.031950
     57 H5          -2.5040    -0.8690     0.6640 h1         1 4OL       0.031950
     58 H6          -2.2840     0.9170     3.1140 hc         1 4OL       0.027450
     59 H7          -2.2910    -0.8520     3.1270 hc         1 4OL       0.027450
     60 H8          -4.5430    -0.8500     2.1070 h1         1 4OL       0.037200
     61 H9          -4.5360     0.9190     2.0940 h1         1 4OL       0.037200
     62 H10         -4.0580     2.0190     4.3470 h1         1 4OL       0.035450
     63 H11         -4.6470     1.1500     5.7710 h1         1 4OL       0.035450
     64 H12         -6.9410     1.1900     4.8470 hc         1 4OL       0.026200
     65 H13         -6.3520     2.0580     3.4220 hc         1 4OL       0.026200
     66 H14         -7.8920     3.9560     3.9450 h1         1 4OL       0.035450
     67 H15         -8.4790     3.0880     5.3700 h1         1 4OL       0.035450
     68 H16         -2.7740    -2.5750     4.6550 ha         1 4OL       0.127000
     69 H17         -2.3700    -4.7470     3.5000 ha         1 4OL       0.110500
     70 H18         -4.1500    -5.7370     2.1320 ha         1 4OL       0.141500
     71 H19         -5.5370     7.1680     6.7460 ha         1 4OL       0.127000
     72 H20         -5.5870     9.2980     8.0420 ha         1 4OL       0.110500
     73 H21         -7.5630    10.7450     7.9090 ha         1 4OL       0.141500
     74 H22         -9.8450     8.5880     4.4100 ho         1 4OL       0.434000
     75 H23         -9.1970     4.2840     7.1450 h1         1 4OL       0.037200
     76 H24         -8.9640     6.0360     7.2150 h1         1 4OL       0.037200
     77 H25         -6.6530     5.6970     8.0280 hc         1 4OL       0.027450
     78 H26         -6.8850     3.9450     7.9560 hc         1 4OL       0.027450
     79 H27         -8.4980     5.8740     9.6640 h1         1 4OL       0.031950
     80 H28         -8.7300     4.1220     9.5930 h1         1 4OL       0.031950
     81 H29         -6.0080     4.6030    10.2340 hn         1 4OL       0.181500
     82 H30         -7.9570     5.2910    15.2880 ho         1 4OL       0.423000
     83 H31         -3.4880     4.0800    15.4930 ha         1 4OL       0.139500
     84 H32         -2.8870     4.1020    13.1140 ha         1 4OL       0.109000
     85 H33         -4.6710     4.4060    11.4020 ha         1 4OL       0.119000
     86 H34         -5.5980     3.9180     4.8670 hc         1 4OL       0.026200
     87 H35         -6.1850     3.0490     6.2920 hc         1 4OL       0.026200
     88 H36         -7.6880    -2.8760     3.2200 ho         1 4OL       0.434000
     89 H37         -0.1730    -0.0090     2.0340 hn         1 4OL       0.181500
     90 H38          1.8270     0.6060    -3.0060 ho         1 4OL       0.423000
     91 O49         -6.4380    -4.6060     1.8370 o          1 4OL      -0.686000
     92 C20         -7.7390     3.7890     5.0040 c3         1 4OL       0.053500
@<TRIPOS>BOND
     1     1     2 1   
     2     1    48 1   
     3     1    49 2   
     4     2     6 2   
     5     2    50 1   
     6     3     4 2   
     7     3     6 1   
     8     3    53 1   
     9     4     5 1   
    10     4    54 1   
    11     5    50 1   
    12     5    51 2   
    13     6    55 1   
    14     7     8 1   
    15     7    48 1   
    16     7    56 1   
    17     7    57 1   
    18     8     9 1   
    19     8    58 1   
    20     8    59 1   
    21     9    43 1   
    22     9    60 1   
    23     9    61 1   
    24    10    43 1   
    25    10    44 2   
    26    10    45 1   
    27    11    12 1   
    28    11    43 1   
    29    11    62 1   
    30    11    63 1   
    31    12    42 1   
    32    12    64 1   
    33    12    65 1   
    34    13    14 1   
    35    13    45 2   
    36    13    68 1   
    37    14    15 2   
    38    14    69 1   
    39    15    16 1   
    40    15    70 1   
    41    16    46 1   
    42    16    91 2   
    43    17    18 2   
    44    18    19 1   
    45    18    27 1   
    46    19    20 2   
    47    19    25 1   
    48    20    21 1   
    49    20    71 1   
    50    21    22 2   
    51    21    72 1   
    52    22    23 1   
    53    22    73 1   
    54    23    24 2   
    55    23    25 1   
    56    25    26 1   
    57    26    74 1   
    58    27    28 1   
    59    27    92 1   
    60    28    29 1   
    61    28    75 1   
    62    28    76 1   
    63    29    30 1   
    64    29    77 1   
    65    29    78 1   
    66    30    31 1   
    67    30    79 1   
    68    30    80 1   
    69    31    32 1   
    70    31    81 1   
    71    32    33 2   
    72    32    34 1   
    73    34    35 1   
    74    34    41 2   
    75    35    36 1   
    76    35    37 1   
    77    36    82 1   
    78    37    38 2   
    79    37    39 1   
    80    39    40 2   
    81    39    83 1   
    82    40    41 1   
    83    40    84 1   
    84    41    85 1   
    85    42    86 1   
    86    42    87 1   
    87    42    92 1   
    88    45    46 1   
    89    46    47 1   
    90    47    88 1   
    91    48    89 1   
    92    50    52 1   
    93    52    90 1   
    94    66    92 1   
    95    67    92 1   
@<TRIPOS>SUBSTRUCTURE
     1 4OL         1 TEMP              0 ****  ****    0 ROOT
