@<TRIPOS>MOLECULE
4OO
   26    26     1     0     0
SMALL
bcc


@<TRIPOS>ATOM
      1 N1           0.0000     0.0000     0.0000 ne         1 4OO      -0.249400
      2 N2           1.1240     0.0000     0.0000 n1         1 4OO       0.818000
      3 N3           2.2480     0.0000     0.0200 n2         1 4OO      -0.385400
      4 C           -5.3670     0.1820     5.3260 c          1 4OO       0.950600
      5 O           -5.2070     0.5480     6.5190 o          1 4OO      -0.789300
      6 CA          -4.2930     0.6910     4.3680 c3         1 4OO      -0.234500
      7 N           -4.2440     2.1410     4.4210 nz         1 4OO       0.111400
      8 CB          -2.9370     0.1220     4.7770 c3         1 4OO       0.039900
      9 CG          -2.0450     0.0000     3.5450 ca         1 4OO      -0.049300
     10 CD2         -2.3040    -0.9750     2.5960 ca         1 4OO      -0.072000
     11 CE2         -1.4720    -1.1090     1.4960 ca         1 4OO      -0.043000
     12 CZ          -0.3830    -0.2680     1.3450 ca         1 4OO      -0.059600
     13 CE1         -0.1240     0.7070     2.2940 ca         1 4OO      -0.043000
     14 CD1         -0.9550     0.8410     3.3940 ca         1 4OO      -0.072000
     15 H1           2.7330    -0.0000     0.8950 hn         1 4OO       0.498400
     16 H3          -4.5290     0.3740     3.3600 hx         1 4OO       0.079700
     17 H4          -5.1590     2.4980     4.6160 hn         1 4OO       0.210133
     18 H5          -3.9270     2.4960     3.5410 hn         1 4OO       0.210133
     19 H7          -2.4690     0.7820     5.4970 hc         1 4OO       0.066700
     20 H8          -3.0740    -0.8570     5.2210 hc         1 4OO       0.066700
     21 H9          -3.1340    -1.6570     2.7330 ha         1 4OO       0.143000
     22 H10         -1.6700    -1.8780     0.7580 ha         1 4OO       0.118500
     23 H11          0.6860     1.4100     2.1410 ha         1 4OO       0.118500
     24 H12         -0.7270     1.5740     4.1590 ha         1 4OO       0.143000
     25 HN3         -3.6130     2.4270     5.1430 hn         1 4OO       0.210133
     26 O1          -6.3310    -0.5660     5.0210 o          1 4OO      -0.789300
@<TRIPOS>BOND
     1     1     2 2   
     2     1    12 1   
     3     2     3 2   
     4     3    15 1   
     5     4     5 1   
     6     4     6 1   
     7     4    26 1   
     8     6     7 1   
     9     6     8 1   
    10     6    16 1   
    11     7    17 1   
    12     7    18 1   
    13     7    25 1   
    14     8     9 1   
    15     8    19 1   
    16     8    20 1   
    17     9    10 ar  
    18     9    14 ar  
    19    10    11 ar  
    20    10    21 1   
    21    11    12 ar  
    22    11    22 1   
    23    12    13 ar  
    24    13    14 ar  
    25    13    23 1   
    26    14    24 1   
@<TRIPOS>SUBSTRUCTURE
     1 4OO         1 TEMP              0 ****  ****    0 ROOT
