@<TRIPOS>MOLECULE
molecule
   26    26     1     0     0
SMALL
bcc


@<TRIPOS>ATOM
      1 N1           0.0000     0.0000     0.0000 ne         1 4OO      -0.141400
      2 N2           1.1240     0.0000     0.0000 n1         1 4OO       0.440000
      3 N3           2.2480     0.0000     0.0200 n2         1 4OO      -0.433400
      4 C           -4.7010    -1.1120    -6.0230 c          1 4OO       0.842600
      5 O           -5.9270    -1.0170    -5.7500 o          1 4OO      -0.728800
      6 CA          -3.5220    -1.3060    -5.0730 c3         1 4OO       0.094500
      7 N           -2.5960    -2.2680    -5.6410 nz         1 4OO      -0.804600
      8 CB          -2.8080     0.0290    -4.8680 c3         1 4OO       0.025900
      9 CG          -2.0450     0.0000    -3.5450 ca         1 4OO      -0.091300
     10 CD2         -2.7380     0.0000    -2.3460 ca         1 4OO      -0.100500
     11 CE2         -2.0460    -0.0000    -1.1450 ca         1 4OO      -0.101000
     12 CZ          -0.6600     0.0000    -1.1450 ca         1 4OO       0.088400
     13 CE1          0.0330     0.0000    -2.3440 ca         1 4OO      -0.101000
     14 CD1         -0.6590     0.0000    -3.5440 ca         1 4OO      -0.100500
     15 H1           2.7630    -0.0000    -0.8380 hn         1 4OO       0.647400
     16 H3          -3.8830    -1.6720    -4.1190 hx         1 4OO       0.035700
     17 H4          -1.9550    -2.5720    -4.9340 hn         1 4OO       0.431800
     18 H5          -3.1050    -3.0550    -5.9900 hn         1 4OO       0.431800
     19 H7          -2.1130     0.1950    -5.6820 hc         1 4OO       0.111200
     20 H8          -3.5380     0.8290    -4.8460 hc         1 4OO       0.111200
     21 H9          -3.8200     0.0460    -2.3460 ha         1 4OO       0.175500
     22 H10         -2.5880     0.0050    -0.2080 ha         1 4OO       0.144000
     23 H11          1.1160     0.0120    -2.3440 ha         1 4OO       0.144000
     24 H12         -0.1180     0.0430    -4.4820 ha         1 4OO       0.175500
     25 HN3         -2.0870    -1.8400    -6.3890 hn         1 4OO       0.431800
     26 O1          -4.0200    -0.0730    -6.2260 o          1 4OO      -0.728800
@<TRIPOS>BOND
     1    11    10 ar  
     2    11    12 ar  
     3    10     9 ar  
     4     1     2 2   
     5     1    12 1   
     6     2     3 2   
     7    12    13 ar  
     8     9     8 1   
     9     9    14 ar  
    10     8     6 1   
    11    13    14 ar  
    12     5     4 1   
    13     7     6 1   
    14     6     4 1   
    15     3    15 1   
    16     6    16 1   
    17     7    17 1   
    18     7    18 1   
    19     8    19 1   
    20     8    20 1   
    21    10    21 1   
    22    11    22 1   
    23    13    23 1   
    24    14    24 1   
    25     4    26 1   
    26    25     7 1   
@<TRIPOS>SUBSTRUCTURE
     1 4OO         1 TEMP              0 ****  ****    0 ROOT
