@<TRIPOS>MOLECULE
4OQ
   48    51     1     0     0
SMALL
bcc


@<TRIPOS>ATOM
      1 C1           0.0000     0.0000     0.0000 c3         1 4OQ       0.007300
      2 C2           2.2450     0.0000     1.0870 ca         1 4OQ      -0.222500
      3 C3           3.1030     0.0000     0.0000 ca         1 4OQ      -0.075000
      4 C11          0.0660    -3.8880     3.2980 ca         1 4OQ      -0.061600
      5 C12         -0.0110    -3.9710     1.9180 ca         1 4OQ      -0.062000
      6 C13          0.2750    -2.8650     1.1370 ca         1 4OQ      -0.125000
      7 C14          0.6320    -1.6680     1.7340 ca         1 4OQ      -0.033200
      8 C15          0.6040     1.1940     5.7320 c3         1 4OQ       0.149800
      9 C16         -0.6820     1.9940     5.9710 c3         1 4OQ       0.138300
     10 C17         -2.8910     1.8740     6.9550 c3         1 4OQ       0.189100
     11 C18         -2.0620     0.0300     5.6220 c3         1 4OQ       0.138300
     12 C19         -0.8340    -0.8500     5.3680 c3         1 4OQ       0.149800
     13 Cl          -0.2740    -5.2870     4.2670 cl         1 4OQ      -0.019400
     14 C10          0.4140    -2.6980     3.9070 ca         1 4OQ      -0.076000
     15 N            0.9650    -0.5620     0.9480 na         1 4OQ       0.153700
     16 C           -0.8340     1.0760     0.7000 c3         1 4OQ      -0.027100
     17 C9           0.6860    -1.5690     3.1310 ca         1 4OQ      -0.223500
     18 C8           0.9820    -0.2850     3.7800 cc         1 4OQ       0.356400
     19 N2           0.2730     0.0100     4.9240 nh         1 4OQ      -0.464300
     20 N3          -1.7020     1.1100     6.5510 n3         1 4OQ      -0.545600
     21 N1           1.8370     0.5900     3.3870 nd         1 4OQ      -0.400000
     22 C7           2.6720     0.5190     2.3120 ca         1 4OQ       0.392600
     23 C6           3.9800     0.9920     2.4370 ca         1 4OQ      -0.203300
     24 C5           4.8310     0.9780     1.3460 ca         1 4OQ       0.113900
     25 F            6.0950     1.4390     1.4710 f          1 4OQ      -0.130900
     26 C4           4.3910     0.4920     0.1270 ca         1 4OQ      -0.151000
     27 H1           0.5300     0.4400    -0.8360 h1         1 4OQ       0.018700
     28 H2          -0.6530    -0.7860    -0.3590 h1         1 4OQ       0.018700
     29 H3           2.7620    -0.3790    -0.9560 ha         1 4OQ       0.109000
     30 H4          -0.2920    -4.9060     1.4490 ha         1 4OQ       0.115000
     31 H5           0.2140    -2.9350     0.0580 ha         1 4OQ       0.118000
     32 H6           1.0190     0.8810     6.6820 h1         1 4OQ       0.042700
     33 H7           1.3200     1.8090     5.2000 h1         1 4OQ       0.042700
     34 H8          -1.0410     2.3890     5.0290 h1         1 4OQ       0.016450
     35 H9          -0.4780     2.8070     6.6570 h1         1 4OQ       0.016450
     36 H10         -2.6050     2.6370     7.6690 h1         1 4OQ       0.001367
     37 H11         -3.6120     1.2060     7.4100 h1         1 4OQ       0.001367
     38 H12         -3.3330     2.3430     6.0840 h1         1 4OQ       0.001367
     39 H13         -2.3990     0.4570     4.6860 h1         1 4OQ       0.016450
     40 H14         -2.8520    -0.5710     6.0570 h1         1 4OQ       0.016450
     41 H15         -0.5550    -1.3570     6.2840 h1         1 4OQ       0.042700
     42 H16         -1.0610    -1.5770     4.5980 h1         1 4OQ       0.042700
     43 H17          0.4730    -2.6400     4.9870 ha         1 4OQ       0.133000
     44 H18         -1.4220     1.6120    -0.0350 hc         1 4OQ       0.010033
     45 H19         -0.1750     1.7690     1.2090 hc         1 4OQ       0.010033
     46 H20         -1.4940     0.6090     1.4200 hc         1 4OQ       0.010033
     47 H22          4.3290     1.3720     3.3900 ha         1 4OQ       0.129000
     48 H23          5.0610     0.4820    -0.7240 ha         1 4OQ       0.118000
@<TRIPOS>BOND
     1     1    15 1   
     2     1    16 1   
     3     1    27 1   
     4     1    28 1   
     5     2     3 ar  
     6     2    15 1   
     7     2    22 ar  
     8     3    26 ar  
     9     3    29 1   
    10     4     5 ar  
    11     4    13 1   
    12     4    14 ar  
    13     5     6 ar  
    14     5    30 1   
    15     6     7 ar  
    16     6    31 1   
    17     7    15 1   
    18     7    17 ar  
    19     8     9 1   
    20     8    19 1   
    21     8    32 1   
    22     8    33 1   
    23     9    20 1   
    24     9    34 1   
    25     9    35 1   
    26    10    20 1   
    27    10    36 1   
    28    10    37 1   
    29    10    38 1   
    30    11    12 1   
    31    11    20 1   
    32    11    39 1   
    33    11    40 1   
    34    12    19 1   
    35    12    41 1   
    36    12    42 1   
    37    14    17 ar  
    38    14    43 1   
    39    16    44 1   
    40    16    45 1   
    41    16    46 1   
    42    17    18 1   
    43    18    19 1   
    44    18    21 2   
    45    21    22 1   
    46    22    23 ar  
    47    23    24 ar  
    48    23    47 1   
    49    24    25 1   
    50    24    26 ar  
    51    26    48 1   
@<TRIPOS>SUBSTRUCTURE
     1 4OQ         1 TEMP              0 ****  ****    0 ROOT
