@<TRIPOS>MOLECULE
molecule
   48    51     1     0     0
SMALL
bcc


@<TRIPOS>ATOM
      1 C1           0.0000     0.0000     0.0000 c3         1 4OQ       0.075300
      2 C2           2.2450     0.0000     1.0870 ca         1 4OQ      -0.097500
      3 C3           3.1030     0.0000     0.0000 ca         1 4OQ      -0.105000
      4 C11          0.0660    -3.8880     3.2980 ca         1 4OQ      -0.004600
      5 C12         -0.0110    -3.9710     1.9180 ca         1 4OQ      -0.087000
      6 C13          0.2750    -2.8650     1.1370 ca         1 4OQ      -0.154000
      7 C14          0.6320    -1.6680     1.7340 ca         1 4OQ       0.096800
      8 C15          0.6040     1.1940     5.7320 c3         1 4OQ       0.230800
      9 C16         -0.6820     1.9940     5.9710 c3         1 4OQ       0.143300
     10 C17         -2.8910     1.8740     6.9550 c3         1 4OQ       0.152100
     11 C18         -2.0620     0.0300     5.6220 c3         1 4OQ       0.143300
     12 C19         -0.8340    -0.8500     5.3680 c3         1 4OQ       0.230800
     13 Cl          -0.2740    -5.2870     4.2670 cl         1 4OQ      -0.104400
     14 C10          0.4140    -2.6980     3.9070 ca         1 4OQ      -0.086000
     15 N            0.9650    -0.5620     0.9480 na         1 4OQ      -0.215300
     16 C           -0.8340     1.0760     0.7000 c3         1 4OQ      -0.120100
     17 C9           0.6860    -1.5690     3.1310 ca         1 4OQ      -0.240500
     18 C8           0.9820    -0.2850     3.7800 cc         1 4OQ       0.545400
     19 N2           0.2730     0.0100     4.9240 nh         1 4OQ      -0.822300
     20 N3          -1.7020     1.1100     6.5510 n3         1 4OQ      -0.732600
     21 N1           1.8370     0.5900     3.3870 nd         1 4OQ      -0.521000
     22 C7           2.6720     0.5190     2.3120 ca         1 4OQ       0.436600
     23 C6           3.9800     0.9920     2.4370 ca         1 4OQ      -0.230300
     24 C5           4.8310     0.9780     1.3460 ca         1 4OQ       0.136900
     25 F            6.0950     1.4390     1.4710 f          1 4OQ      -0.142900
     26 C4           4.3910     0.4920     0.1270 ca         1 4OQ      -0.183000
     27 H1           0.5300     0.4400    -0.8360 h1         1 4OQ       0.046700
     28 H2          -0.6530    -0.7860    -0.3590 h1         1 4OQ       0.046700
     29 H3           2.7620    -0.3790    -0.9560 ha         1 4OQ       0.137000
     30 H4          -0.2920    -4.9060     1.4490 ha         1 4OQ       0.148000
     31 H5           0.2140    -2.9350     0.0580 ha         1 4OQ       0.148000
     32 H6           1.0190     0.8810     6.6820 h1         1 4OQ       0.066950
     33 H7           1.3200     1.8090     5.2000 h1         1 4OQ       0.066950
     34 H8          -1.0410     2.3890     5.0290 h1         1 4OQ       0.042950
     35 H9          -0.4780     2.8070     6.6570 h1         1 4OQ       0.042950
     36 H10         -2.6050     2.6370     7.6690 h1         1 4OQ       0.033367
     37 H11         -3.6120     1.2060     7.4100 h1         1 4OQ       0.033367
     38 H12         -3.3330     2.3430     6.0840 h1         1 4OQ       0.033367
     39 H13         -2.3990     0.4570     4.6860 h1         1 4OQ       0.042950
     40 H14         -2.8520    -0.5710     6.0570 h1         1 4OQ       0.042950
     41 H15         -0.5550    -1.3570     6.2840 h1         1 4OQ       0.066950
     42 H16         -1.0610    -1.5770     4.5980 h1         1 4OQ       0.066950
     43 H17          0.4730    -2.6400     4.9870 ha         1 4OQ       0.157000
     44 H18         -1.4220     1.6120    -0.0350 hc         1 4OQ       0.043033
     45 H19         -0.1750     1.7690     1.2090 hc         1 4OQ       0.043033
     46 H20         -1.4940     0.6090     1.4200 hc         1 4OQ       0.043033
     47 H22          4.3290     1.3720     3.3900 ha         1 4OQ       0.157000
     48 H23          5.0610     0.4820    -0.7240 ha         1 4OQ       0.144000
@<TRIPOS>BOND
     1    20    10 1   
     2    20    11 1   
     3    20     9 1   
     4    12    11 1   
     5    12    19 1   
     6     8     9 1   
     7     8    19 1   
     8    19    18 1   
     9    13     4 1   
    10    14     4 ar  
    11    14    17 ar  
    12    18    21 2   
    13    18    17 1   
    14     4     5 ar  
    15    21    22 1   
    16    17     7 ar  
    17     5     6 ar  
    18    22    23 ar  
    19    22     2 ar  
    20     7     6 ar  
    21     7    15 1   
    22    23    24 ar  
    23    15     2 1   
    24    15     1 1   
    25     2     3 ar  
    26    24    25 1   
    27    24    26 ar  
    28     1    16 1   
    29     3    26 ar  
    30     1    27 1   
    31     1    28 1   
    32     3    29 1   
    33     5    30 1   
    34     6    31 1   
    35     8    32 1   
    36     8    33 1   
    37     9    34 1   
    38     9    35 1   
    39    10    36 1   
    40    10    37 1   
    41    10    38 1   
    42    11    39 1   
    43    11    40 1   
    44    12    41 1   
    45    12    42 1   
    46    14    43 1   
    47    16    44 1   
    48    16    45 1   
    49    16    46 1   
    50    23    47 1   
    51    26    48 1   
@<TRIPOS>SUBSTRUCTURE
     1 4OQ         1 TEMP              0 ****  ****    0 ROOT
