@<TRIPOS>MOLECULE
molecule
   61    64     1     0     0
SMALL
bcc


@<TRIPOS>ATOM
      1 C1           0.0000     0.0000     0.0000 c3         1 4OR       0.074300
      2 C2           2.2450     0.0000     1.0870 ca         1 4OR      -0.095500
      3 C3           3.1030     0.0000     0.0000 ca         1 4OR      -0.106000
      4 C11         -0.0110     2.4930     7.6290 c3         1 4OR       0.096000
      5 C12          1.6790     1.1280     6.6240 c3         1 4OR       0.110000
      6 C13          2.0630     1.9820     8.9510 c          1 4OR       0.806100
      7 C14          2.4290     2.8140    11.2110 c3         1 4OR       0.140400
      8 C15          3.7700     3.4650    10.8640 c3         1 4OR      -0.102100
      9 C16          2.6730     1.4210    11.7950 c3         1 4OR      -0.102100
     10 C17          1.6950     3.6770    12.2400 c3         1 4OR      -0.102100
     11 C18          0.6890    -1.5700     3.1290 ca         1 4OR      -0.239500
     12 C19          0.4280    -2.7020     3.9050 ca         1 4OR      -0.087000
     13 C20          0.0950    -3.8950     3.2960 ca         1 4OR       0.003400
     14 C21          0.0160    -3.9790     1.9170 ca         1 4OR      -0.087000
     15 C22          0.2830    -2.8690     1.1360 ca         1 4OR      -0.151000
     16 C23          0.6310    -1.6700     1.7330 ca         1 4OR       0.095800
     17 Cl          -0.2260    -5.2990     4.2660 cl         1 4OR      -0.103400
     18 N            0.9650    -0.5630     0.9480 na         1 4OR      -0.216300
     19 C           -0.8340     1.0760     0.6990 c3         1 4OR      -0.119100
     20 C8           0.9820    -0.2850     3.7800 cc         1 4OR       0.538400
     21 N1           1.8350     0.5920     3.3850 nd         1 4OR      -0.512000
     22 C7           2.6700     0.5220     2.3110 ca         1 4OR       0.431600
     23 C6           3.9770     0.9990     2.4350 ca         1 4OR      -0.225300
     24 C5           4.8280     0.9840     1.3450 ca         1 4OR       0.137900
     25 F            6.0910     1.4480     1.4700 f          1 4OR      -0.140900
     26 C4           4.3900     0.4950     0.1270 ca         1 4OR      -0.180000
     27 N2           0.2730     0.0070     4.9230 nu         1 4OR      -0.906900
     28 C9           0.5090     1.2690     5.6270 c3         1 4OR       0.232500
     29 N3           1.3120     1.8770     7.8360 n          1 4OR      -0.521800
     30 C10         -0.6910     1.6180     6.5470 c3         1 4OR      -0.112400
     31 O            3.1430     1.4290     9.0110 o          1 4OR      -0.655100
     32 N4           1.6130     2.7000     9.9990 ns         1 4OR      -0.597900
     33 H1          -0.6530    -0.7860    -0.3600 h1         1 4OR       0.046700
     34 H2           0.5300     0.4410    -0.8360 h1         1 4OR       0.046700
     35 H3           2.7640    -0.3820    -0.9550 ha         1 4OR       0.138000
     36 H4          -0.5840     2.4690     8.5470 h1         1 4OR       0.043700
     37 H5           0.1000     3.5100     7.2730 h1         1 4OR       0.043700
     38 H6           2.5810     1.5440     6.1940 h1         1 4OR       0.063200
     39 H7           1.8280     0.0830     6.8690 h1         1 4OR       0.063200
     40 H8           4.4030     2.7420    10.3640 hc         1 4OR       0.044922
     41 H9           4.2540     3.8010    11.7730 hc         1 4OR       0.044922
     42 H10          3.6030     4.3120    10.2100 hc         1 4OR       0.044922
     43 H11          3.0010     1.5130    12.8230 hc         1 4OR       0.044922
     44 H12          3.4360     0.9160    11.2160 hc         1 4OR       0.044922
     45 H13          1.7540     0.8490    11.7590 hc         1 4OR       0.044922
     46 H14          0.7310     3.2350    12.4610 hc         1 4OR       0.044922
     47 H15          1.5510     4.6730    11.8390 hc         1 4OR       0.044922
     48 H16          2.2820     3.7350    13.1480 hc         1 4OR       0.044922
     49 H17          0.4890    -2.6430     4.9850 ha         1 4OR       0.150000
     50 H18         -0.2460    -4.9190     1.4470 ha         1 4OR       0.149000
     51 H19          0.2200    -2.9390     0.0560 ha         1 4OR       0.148000
     52 H20         -1.5050     1.5350    -0.0170 hc         1 4OR       0.043033
     53 H21         -0.1760     1.8300     1.1130 hc         1 4OR       0.043033
     54 H22         -1.4120     0.6230     1.4960 hc         1 4OR       0.043033
     55 H23          4.3250     1.3800     3.3870 ha         1 4OR       0.160000
     56 H24          5.0600     0.4850    -0.7240 ha         1 4OR       0.145000
     57 H25         -0.4350    -0.6220     5.2470 hn         1 4OR       0.447800
     58 H26          0.6990     2.0750     4.9290 h1         1 4OR       0.095700
     59 H27         -1.4400     2.1850     6.0070 hc         1 4OR       0.058700
     60 H28         -1.1140     0.7220     6.9860 hc         1 4OR       0.058700
     61 H29          0.7450     3.1940     9.9320 hn         1 4OR       0.306500
@<TRIPOS>BOND
     1     9     7 1
     2     4    30 1
     3     4    29 1
     4    30    28 1
     5    32     7 1
     6    32     6 1
     7    10     7 1
     8     7     8 1
     9    29     6 1
    10    29     5 1
    11    28     5 1
    12    28    27 1
    13     6    31 2
    14    27    20 1
    15    17    13 1
    16    12    13 ar
    17    12    11 ar
    18    20    21 2
    19    20    11 1
    20    13    14 ar
    21    21    22 1
    22    11    16 ar
    23    14    15 ar
    24    22    23 ar
    25    22     2 ar
    26    16    15 ar
    27    16    18 1
    28    23    24 ar
    29    18     2 1
    30    18     1 1
    31     2     3 ar
    32    24    25 1
    33    24    26 ar
    34     1    19 1
    35     3    26 ar
    36     1    33 1
    37     1    34 1
    38     3    35 1
    39     4    36 1
    40     4    37 1
    41     5    38 1
    42     5    39 1
    43     8    40 1
    44     8    41 1
    45     8    42 1
    46     9    43 1
    47     9    44 1
    48     9    45 1
    49    10    46 1
    50    10    47 1
    51    10    48 1
    52    12    49 1
    53    14    50 1
    54    15    51 1
    55    19    52 1
    56    19    53 1
    57    19    54 1
    58    23    55 1
    59    26    56 1
    60    27    57 1
    61    28    58 1
    62    30    59 1
    63    30    60 1
    64    32    61 1
@<TRIPOS>SUBSTRUCTURE
     1 4OR         1 TEMP              0 ****  ****    0 ROOT
