@<TRIPOS>MOLECULE
4OR
   61    64     1     0     0
SMALL
bcc


@<TRIPOS>ATOM
      1 C1           0.0000     0.0000     0.0000 c3         1 4OR       0.007300
      2 C2           2.2450     0.0000     1.0870 ca         1 4OR      -0.221500
      3 C3           3.1030     0.0000     0.0000 ca         1 4OR      -0.075000
      4 C11         -0.0110     2.4930     7.6290 c3         1 4OR       0.054000
      5 C12          1.6790     1.1280     6.6240 c3         1 4OR       0.060000
      6 C13          2.0630     1.9820     8.9510 c          1 4OR       0.619100
      7 C14          2.4290     2.8140    11.2110 c3         1 4OR       0.028400
      8 C15          3.7700     3.4650    10.8640 c3         1 4OR      -0.018767
      9 C16          2.6730     1.4210    11.7950 c3         1 4OR      -0.018767
     10 C17          1.6950     3.6770    12.2400 c3         1 4OR      -0.018767
     11 C18          0.6890    -1.5700     3.1290 ca         1 4OR      -0.224500
     12 C19          0.4280    -2.7020     3.9050 ca         1 4OR      -0.065000
     13 C20          0.0950    -3.8950     3.2960 ca         1 4OR      -0.056600
     14 C21          0.0160    -3.9790     1.9170 ca         1 4OR      -0.063000
     15 C22          0.2830    -2.8690     1.1360 ca         1 4OR      -0.123000
     16 C23          0.6310    -1.6700     1.7330 ca         1 4OR      -0.033200
     17 Cl          -0.2260    -5.2990     4.2660 cl         1 4OR      -0.019400
     18 N            0.9650    -0.5630     0.9480 na         1 4OR       0.150700
     19 C           -0.8340     1.0760     0.6990 c3         1 4OR      -0.026100
     20 C8           0.9820    -0.2850     3.7800 cc         1 4OR       0.338400
     21 N1           1.8350     0.5920     3.3850 nd         1 4OR      -0.390000
     22 C7           2.6700     0.5220     2.3110 ca         1 4OR       0.387600
     23 C6           3.9770     0.9990     2.4350 ca         1 4OR      -0.198300
     24 C5           4.8280     0.9840     1.3450 ca         1 4OR       0.113900
     25 F            6.0910     1.4480     1.4700 f          1 4OR      -0.129900
     26 C4           4.3900     0.4950     0.1270 ca         1 4OR      -0.149000
     27 N2           0.2730     0.0070     4.9230 nu         1 4OR      -0.499900
     28 C9           0.5090     1.2690     5.6270 c3         1 4OR       0.125500
     29 N3           1.3120     1.8770     7.8360 n          1 4OR      -0.194800
     30 C10         -0.6910     1.6180     6.5470 c3         1 4OR      -0.045400
     31 O            3.1430     1.4290     9.0110 o          1 4OR      -0.701100
     32 N4           1.6130     2.7000     9.9990 ns         1 4OR      -0.220900
     33 H1          -0.6530    -0.7860    -0.3600 h1         1 4OR       0.019200
     34 H2           0.5300     0.4410    -0.8360 h1         1 4OR       0.019200
     35 H3           2.7640    -0.3820    -0.9550 ha         1 4OR       0.109000
     36 H4          -0.5840     2.4690     8.5470 h1         1 4OR       0.014700
     37 H5           0.1000     3.5100     7.2730 h1         1 4OR       0.014700
     38 H6           2.5810     1.5440     6.1940 h1         1 4OR       0.032200
     39 H7           1.8280     0.0830     6.8690 h1         1 4OR       0.032200
     40 H8           4.4030     2.7420    10.3640 hc         1 4OR       0.015700
     41 H9           4.2540     3.8010    11.7730 hc         1 4OR       0.015700
     42 H10          3.6030     4.3120    10.2100 hc         1 4OR       0.015700
     43 H11          3.0010     1.5130    12.8230 hc         1 4OR       0.015700
     44 H12          3.4360     0.9160    11.2160 hc         1 4OR       0.015700
     45 H13          1.7540     0.8490    11.7590 hc         1 4OR       0.015700
     46 H14          0.7310     3.2350    12.4610 hc         1 4OR       0.015700
     47 H15          1.5510     4.6730    11.8390 hc         1 4OR       0.015700
     48 H16          2.2820     3.7350    13.1480 hc         1 4OR       0.015700
     49 H17          0.4890    -2.6430     4.9850 ha         1 4OR       0.119000
     50 H18         -0.2460    -4.9190     1.4470 ha         1 4OR       0.116000
     51 H19          0.2200    -2.9390     0.0560 ha         1 4OR       0.118000
     52 H20         -1.5050     1.5350    -0.0170 hc         1 4OR       0.009700
     53 H21         -0.1760     1.8300     1.1130 hc         1 4OR       0.009700
     54 H22         -1.4120     0.6230     1.4960 hc         1 4OR       0.009700
     55 H23          4.3250     1.3800     3.3870 ha         1 4OR       0.131000
     56 H24          5.0600     0.4850    -0.7240 ha         1 4OR       0.118000
     57 H25         -0.4350    -0.6220     5.2470 hn         1 4OR       0.297800
     58 H26          0.6990     2.0750     4.9290 h1         1 4OR       0.067700
     59 H27         -1.4400     2.1850     6.0070 hc         1 4OR       0.028200
     60 H28         -1.1140     0.7220     6.9860 hc         1 4OR       0.028200
     61 H29          0.7450     3.1940     9.9320 hn         1 4OR       0.170500
@<TRIPOS>BOND
     1     1    18 1   
     2     1    19 1   
     3     1    33 1   
     4     1    34 1   
     5     2     3 ar  
     6     2    18 1   
     7     2    22 ar  
     8     3    26 ar  
     9     3    35 1   
    10     4    29 1   
    11     4    30 1   
    12     4    36 1   
    13     4    37 1   
    14     5    28 1   
    15     5    29 1   
    16     5    38 1   
    17     5    39 1   
    18     6    29 1   
    19     6    31 2   
    20     6    32 1   
    21     7     8 1   
    22     7     9 1   
    23     7    10 1   
    24     7    32 1   
    25     8    40 1   
    26     8    41 1   
    27     8    42 1   
    28     9    43 1   
    29     9    44 1   
    30     9    45 1   
    31    10    46 1   
    32    10    47 1   
    33    10    48 1   
    34    11    12 ar  
    35    11    16 ar  
    36    11    20 1   
    37    12    13 ar  
    38    12    49 1   
    39    13    14 ar  
    40    13    17 1   
    41    14    15 ar  
    42    14    50 1   
    43    15    16 ar  
    44    15    51 1   
    45    16    18 1   
    46    19    52 1   
    47    19    53 1   
    48    19    54 1   
    49    20    21 2   
    50    20    27 1   
    51    21    22 1   
    52    22    23 ar  
    53    23    24 ar  
    54    23    55 1   
    55    24    25 1   
    56    24    26 ar  
    57    26    56 1   
    58    27    28 1   
    59    27    57 1   
    60    28    30 1   
    61    28    58 1   
    62    30    59 1   
    63    30    60 1   
    64    32    61 1   
@<TRIPOS>SUBSTRUCTURE
     1 4OR         1 TEMP              0 ****  ****    0 ROOT
