@<TRIPOS>MOLECULE
molecule
   19    19     1     0     0
SMALL
bcc


@<TRIPOS>ATOM
      1 S            0.0000     0.0000     0.0000 s6         1 4OS       1.329100
      2 OB1          1.4200     0.0000     0.0000 o          1 4OS      -0.712867
      3 OB2         -0.7780     0.0000     1.1890 o          1 4OS      -0.712867
      4 CG          -0.4980     1.4180    -0.9200 ca         1 4OS      -0.290500
      5 CD1          0.3590     1.9690    -1.8540 ca         1 4OS      -0.004000
      6 CD2         -1.7470     1.9730    -0.7100 ca         1 4OS      -0.004000
      7 CE1         -0.0310     3.0780    -2.5810 ca         1 4OS      -0.226500
      8 CE2         -2.1390     3.0850    -1.4300 ca         1 4OS      -0.226500
      9 CZ          -1.2840     3.6380    -2.3720 ca         1 4OS       0.139100
     10 OH          -1.6690     4.7280    -3.0850 os         1 4OS      -0.344900
     11 CH          -2.9720     5.2510    -2.8180 c3         1 4OS       0.133700
     12 HD1          1.3370     1.5320    -2.0170 ha         1 4OS       0.151000
     13 HD2         -2.4150     1.5410     0.0250 ha         1 4OS       0.151000
     14 HE1          0.6400     3.5090    -3.3140 ha         1 4OS       0.118000
     15 HE2         -3.1180     3.5200    -1.2660 ha         1 4OS       0.118000
     16 HH1         -3.1530     6.1110    -3.4510 h1         1 4OS       0.031700
     17 HH2         -3.0360     5.5480    -1.7780 h1         1 4OS       0.031700
     18 HH3         -3.7160     4.4900    -3.0220 h1         1 4OS       0.031700
     19 OXT         -0.4300    -1.2260    -0.7940 o          1 4OS      -0.712867
@<TRIPOS>BOND
     1     1     2 1
     2     1     3 1
     3     1    19 1
     4     4     6 ar
     5     4     1 1
     6     5     4 ar
     7     5    12 1
     8     6     8 ar
     9     6    13 1
    10     7     5 ar
    11     7    14 1
    12     8    15 1
    13     9     7 ar
    14     9     8 ar
    15    10     9 1
    16    11    10 1
    17    11    16 1
    18    11    17 1
    19    11    18 1
@<TRIPOS>SUBSTRUCTURE
     1 4OS         1 TEMP              0 ****  ****    0 ROOT
