@<TRIPOS>MOLECULE
4OS
   19    17     1     0     0
SMALL
bcc


@<TRIPOS>ATOM
      1 S          -2.4180    0.5950    1.1130 s6        1 4OS      2.854000
      2 OB1        -2.1730    0.9830    2.4390 o         1 4OS     -1.048333
      3 OB2        -2.8270    1.6270    0.2540 o         1 4OS     -1.048333
      4 CG         -0.7370    0.1230    0.5530 c2        1 4OS     -0.416000
      5 CD1        -0.3990    5.6370   -4.8610 c1        1 4OS     -0.165000
      6 CD2        -0.0620    0.7020   -0.4150 c1        1 4OS     -0.455000
      7 CE1         0.1880    4.6440   -4.0910 c2        1 4OS     -0.367000
      8 CE2         0.5530    1.2990   -1.3550 c1        1 4OS      0.039000
      9 CZ         -0.4950    3.8890   -3.1600 c2        1 4OS      0.179000
     10 OH         -1.8090    4.0660   -2.9490 os        1 4OS     -0.172000
     11 CH         -2.3930    3.2470   -1.9130 c3        1 4OS     -0.081000
     12 HD1         0.2690    6.1600   -5.5650 ha        1 4OS      0.011000
     13 HD2        -0.2950   -0.7230    1.1080 h4        1 4OS      0.133000
     14 HE1         1.2630    4.3840   -4.1740 ha        1 4OS      0.078000
     15 HE2         0.0230    3.1000   -2.5630 h4        1 4OS      0.174000
     16 HH1        -1.8860    2.2550   -1.8240 h1        1 4OS      0.110667
     17 HH2        -2.3250    3.8000   -0.9460 h1        1 4OS      0.110667
     18 HH3        -3.4570    3.1270   -2.2280 h1        1 4OS      0.110667
     19 OXT        -3.1120   -0.6150    0.9580 o         1 4OS     -1.048333
@<TRIPOS>BOND
     1    1    2 1   
     2    1    3 1   
     3    1    4 1   
     4    1   19 1   
     5    4    6 1   
     6    4   13 1   
     7    5    7 1   
     8    5   12 1   
     9    6    8 1   
    10    7    9 1   
    11    7   14 1   
    12    9   10 1   
    13    9   15 1   
    14   10   11 1   
    15   11   16 1   
    16   11   17 1   
    17   11   18 1   
@<TRIPOS>SUBSTRUCTURE
     1 4OS         1 TEMP              0 ****  ****    0 ROOT
