@<TRIPOS>MOLECULE
4OX
   29    28     1     0     0
SMALL
bcc


@<TRIPOS>ATOM
      1 C7          0.0530   -0.1640   -0.1410 c3        1 4OX     -0.079400
      2 C8          1.5290    0.1060    0.0690 c3        1 4OX     -0.063400
      3 C9          1.9510   -0.1940    1.4880 c3        1 4OX     -0.189400
      4 C10         3.4700   -0.0660    1.6800 c         1 4OX      0.906600
      5 OT1         3.8880    0.6470    2.6400 o         1 4OX     -0.860300
      6 OT2         4.2410   -0.6960    0.8970 o         1 4OX     -0.860300
      7 O1         -6.4580    0.9670   -4.0770 o         1 4OX     -0.857800
      8 C1         -5.9200   -0.0010   -4.6900 c         1 4OX      0.906600
      9 OH1        -6.5640   -0.8010   -5.4310 o         1 4OX     -0.857800
     10 C2         -4.4030   -0.2190   -4.5550 c3        1 4OX     -0.186400
     11 C3         -3.8970    0.2380   -3.2090 c3        1 4OX     -0.166400
     12 C4         -2.4020    0.2640   -3.0940 c         1 4OX      0.565100
     13 C5         -1.8790   -0.0750   -1.7210 c3        1 4OX     -0.186400
     14 C6         -0.4020    0.1980   -1.5400 c3        1 4OX     -0.072400
     15 O4L        -1.6470    0.5530   -4.0310 o         1 4OX     -0.565100
     16 HC71       -0.1580   -1.2490    0.0500 hc        1 4OX      0.022700
     17 HC72       -0.5430    0.4220    0.6070 hc        1 4OX      0.022700
     18 HC81        1.7520    1.1790   -0.1690 hc        1 4OX      0.042200
     19 HC82        2.1400   -0.5220   -0.6320 hc        1 4OX      0.042200
     20 HC91        1.4310    0.4980    2.1980 hc        1 4OX      0.017200
     21 HC92        1.6600   -1.2420    1.7560 hc        1 4OX      0.017200
     22 HC21       -3.8950    0.3590   -5.3680 hc        1 4OX      0.032700
     23 HC22       -4.1730   -1.3020   -4.7100 hc        1 4OX      0.032700
     24 HC31       -4.2850    1.2800   -3.0230 hc        1 4OX      0.068200
     25 HC32       -4.3250   -0.4170   -2.4060 hc        1 4OX      0.068200
     26 HC51       -2.0880   -1.1630   -1.5380 hc        1 4OX      0.054200
     27 HC52       -2.4700    0.5080   -0.9660 hc        1 4OX      0.054200
     28 HC61       -0.1960    1.2820   -1.7400 hc        1 4OX      0.045700
     29 HC62        0.1820   -0.3880   -2.2970 hc        1 4OX      0.045700
@<TRIPOS>BOND
     1    1    2 1   
     2    1   14 1   
     3    1   16 1   
     4    1   17 1   
     5    2    3 1   
     6    2   18 1   
     7    2   19 1   
     8    3    4 1   
     9    3   20 1   
    10    3   21 1   
    11    4    5 1   
    12    4    6 1   
    13    7    8 1   
    14    8    9 1   
    15    8   10 1   
    16   10   11 1   
    17   10   22 1   
    18   10   23 1   
    19   11   12 1   
    20   11   24 1   
    21   11   25 1   
    22   12   13 1   
    23   12   15 2   
    24   13   14 1   
    25   13   26 1   
    26   13   27 1   
    27   14   28 1   
    28   14   29 1   
@<TRIPOS>SUBSTRUCTURE
     1 4OX         1 TEMP              0 ****  ****    0 ROOT
