@<TRIPOS>MOLECULE
molecule
   29    28     1     0     0
SMALL
bcc


@<TRIPOS>ATOM
      1 C7           0.0000     0.0000     0.0000 c3         1 4OX      -0.090400
      2 C8           1.5300     0.0000     0.0000 c3         1 4OX      -0.062400
      3 C9           2.0410     0.0000     1.4400 c3         1 4OX      -0.182400
      4 C10          3.5470    -0.0000     1.4400 c          1 4OX       0.891600
      5 OT1          4.2200    -0.0000     2.6010 o          1 4OX      -0.864300
      6 OT2          4.1500    -0.0000     0.3940 o          1 4OX      -0.864300
      7 O1          -6.5310    -0.0000    -4.0010 o          1 4OX      -0.864800
      8 C1          -5.7470     0.0000    -4.9200 c          1 4OX       0.890600
      9 OH1         -6.1960     0.0000    -6.1850 o          1 4OX      -0.864800
     10 C2          -4.2650     0.0000    -4.6460 c3         1 4OX      -0.172400
     11 C3          -4.0260     0.0000    -3.1350 c3         1 4OX      -0.162400
     12 C4          -2.5450     0.0000    -2.8600 c          1 4OX       0.551100
     13 C5          -2.0410    -0.0000    -1.4400 c3         1 4OX      -0.189400
     14 C6          -0.5120     0.0000    -1.4410 c3         1 4OX      -0.072400
     15 O4L         -1.7600     0.0000    -3.7790 o          1 4OX      -0.547100
     16 HC71        -0.3610     0.8840     0.5110 hc         1 4OX       0.023700
     17 HC72        -0.3610    -0.8840     0.5110 hc         1 4OX       0.023700
     18 HC81         1.8900     0.8840    -0.5110 hc         1 4OX       0.045700
     19 HC82         1.8900    -0.8840    -0.5110 hc         1 4OX       0.045700
     20 HC91         1.6800     0.8840     1.9520 hc         1 4OX       0.024700
     21 HC92         1.6800    -0.8840     1.9520 hc         1 4OX       0.024700
     22 HC21        -3.8170    -0.8850    -5.0820 hc         1 4OX       0.040700
     23 HC22        -3.8170     0.8850    -5.0820 hc         1 4OX       0.040700
     24 HC31        -4.4740     0.8840    -2.6990 hc         1 4OX       0.064700
     25 HC32        -4.4740    -0.8840    -2.6990 hc         1 4OX       0.064700
     26 HC51        -2.4020    -0.8840    -0.9290 hc         1 4OX       0.052700
     27 HC52        -2.4020     0.8840    -0.9290 hc         1 4OX       0.052700
     28 HC61        -0.1510    -0.8840    -1.9520 hc         1 4OX       0.048700
     29 HC62        -0.1510     0.8840    -1.9520 hc         1 4OX       0.048700
@<TRIPOS>BOND
     1     1     2 1
     2     1    14 1
     3     1    16 1
     4     1    17 1
     5     2     3 1
     6     2    18 1
     7     2    19 1
     8     3     4 1
     9     3    20 1
    10     3    21 1
    11     4     5 1
    12     4     6 1
    13     7     8 1
    14     8     9 1
    15     8    10 1
    16    10    11 1
    17    10    22 1
    18    10    23 1
    19    11    12 1
    20    11    24 1
    21    11    25 1
    22    12    13 1
    23    12    15 2
    24    13    14 1
    25    13    26 1
    26    13    27 1
    27    14    28 1
    28    14    29 1
@<TRIPOS>SUBSTRUCTURE
     1 4OX         1 TEMP              0 ****  ****    0 ROOT
