@<TRIPOS>MOLECULE
molecule
   27    28     1     0     0
SMALL
bcc


@<TRIPOS>ATOM
      1 C10          0.0000     0.0000     0.0000 c          1 4P0       0.571300
      2 C11          1.5070     0.0000     0.0000 c3         1 4P0      -0.195100
      3 O12         -0.6070     0.0000     1.0510 o          1 4P0      -0.544100
      4 C1          -1.2830     1.1560    -4.0840 c3         1 4P0       0.248500
      5 C2          -1.2060    -0.2940    -4.6430 c3         1 4P0      -0.098400
      6 C3          -0.5100    -1.0940    -3.5160 c3         1 4P0      -0.089400
      7 C4           0.0470    -0.0340    -2.5500 c3         1 4P0       0.292700
      8 C6          -0.7340     0.0060    -1.2720 ce         1 4P0      -0.250400
      9 C7          -2.5960     1.2940    -3.3310 c3         1 4P0      -0.095400
     10 C8          -2.8870     0.0470    -2.4960 c3         1 4P0      -0.070200
     11 C9          -2.0610     0.1120    -1.2170 c2         1 4P0      -0.064200
     12 N5          -0.1030     1.2610    -3.2430 n7         1 4P0      -0.998200
     13 H111         1.8090     1.0230    -0.1900 hc         1 4P0       0.060033
     14 H112         1.8840    -0.1770     1.0000 hc         1 4P0       0.060033
     15 H113         1.9250    -0.6380    -0.7690 hc         1 4P0       0.060033
     16 HC1         -1.2350     1.8730    -4.8940 h1         1 4P0       0.049700
     17 HC23        -0.6130    -0.3210    -5.5490 hc         1 4P0       0.047700
     18 HC33         0.2970    -1.6920    -3.9230 hc         1 4P0       0.050700
     19 HC32        -1.2270    -1.7270    -3.0070 hc         1 4P0       0.050700
     20 HC4          1.0930    -0.2280    -2.3440 h1         1 4P0       0.053700
     21 HC73        -2.5390     2.1550    -2.6750 hc         1 4P0       0.047700
     22 HC72        -3.4000     1.4420    -4.0420 hc         1 4P0       0.047700
     23 HC82        -2.6160    -0.8390    -3.0590 hc         1 4P0       0.058700
     24 HC83        -3.9410     0.0130    -2.2480 hc         1 4P0       0.058700
     25 HC9         -2.5550     0.2330    -0.2600 ha         1 4P0       0.150000
     26 HN52         0.4940     2.0590    -3.1510 hn         1 4P0       0.450800
     27 HC22        -2.2000    -0.6840    -4.8260 hc         1 4P0       0.047700
@<TRIPOS>BOND
     1     3     1 2   
     2     1     2 1   
     3     1     8 1   
     4     7     6 1   
     5     7     8 1   
     6     7    12 1   
     7     6     5 1   
     8     8    11 2   
     9    12     4 1   
    10     5     4 1   
    11    11    10 1   
    12     4     9 1   
    13    10     9 1   
    14     2    13 1   
    15     2    14 1   
    16     2    15 1   
    17     4    16 1   
    18     5    27 1   
    19     5    17 1   
    20     6    18 1   
    21     6    19 1   
    22     7    20 1   
    23     9    21 1   
    24     9    22 1   
    25    10    23 1   
    26    10    24 1   
    27    11    25 1   
    28    12    26 1   
@<TRIPOS>SUBSTRUCTURE
     1 4P0         1 TEMP              0 ****  ****    0 ROOT
