@<TRIPOS>MOLECULE
molecule
   50    53     1     0     0
SMALL
bcc


@<TRIPOS>ATOM
      1 C1           0.0000     0.0000     0.0000 c          1 4P1       0.686700
      2 C2           1.4760     0.0000     0.0000 ca         1 4P1      -0.174600
      3 C3           2.1790     0.0000     1.2090 ca         1 4P1       0.171900
      4 C7           2.1790    -0.0060    -1.2090 ca         1 4P1       0.076400
      5 C10         -2.0330    -3.6790    -0.3810 c3         1 4P1      -0.029100
      6 C11         -2.0730    -1.1830    -0.0030 ca         1 4P1       0.074600
      7 C12         -2.7600    -2.3690    -0.2190 ca         1 4P1      -0.122300
      8 C13         -4.1400    -2.3600    -0.2840 ca         1 4P1      -0.085000
      9 C14         -2.7700     0.0120     0.1490 ca         1 4P1      -0.164000
     10 C15         -4.1470     0.0240     0.0860 ca         1 4P1      -0.091000
     11 C16         -4.8400    -1.1660    -0.1330 cp         1 4P1      -0.075000
     12 C19         -8.3540    -1.7750    -1.3390 ca         1 4P1      -0.131000
     13 C20         -9.0970    -1.1570    -0.3540 ca         1 4P1      -0.104000
     14 C21         -8.4570    -0.5310     0.7180 ca         1 4P1      -0.145600
     15 C22         -9.2530     0.1310     1.7720 c          1 4P1       0.672700
     16 C24         -7.0640    -0.5340     0.7920 ca         1 4P1      -0.051000
     17 C4           3.5620    -0.0010     1.2000 ca         1 4P1      -0.171000
     18 C5           4.2480    -0.0020    -0.0010 ca         1 4P1      -0.081000
     19 C6           3.5590    -0.0070    -1.2000 ca         1 4P1      -0.141000
     20 O2          -8.6940     0.6750     2.7050 o          1 4P1      -0.603100
     21 N2         -10.5990     0.1320     1.6990 ns         1 4P1      -0.586900
     22 C23        -11.3890     0.7890     2.7430 c3         1 4P1       0.104300
     23 C18         -6.9730    -1.7810    -1.2710 ca         1 4P1       0.051400
     24 Cl2         -6.0480    -2.5680    -2.5100 cl         1 4P1      -0.097400
     25 C17         -6.3220    -1.1590    -0.2040 cp         1 4P1      -0.030000
     26 C9          -0.5780    -3.4380    -0.7800 c3         1 4P1      -0.102400
     27 C8           0.0470    -2.4380     0.2010 c3         1 4P1       0.097000
     28 N1          -0.6740    -1.1650     0.0630 n          1 4P1      -0.360000
     29 O1          -0.6080     1.0520    -0.0510 o          1 4P1      -0.569100
     30 F            1.5100     0.0010     2.3830 f          1 4P1      -0.122900
     31 Cl1          1.3180    -0.0140    -2.7150 cl         1 4P1      -0.072400
     32 H1          -2.0490    -4.2030     0.5670 hc         1 4P1       0.055700
     33 H2          -2.5170    -4.2470    -1.1670 hc         1 4P1       0.055700
     34 H3          -4.6790    -3.2840    -0.4540 ha         1 4P1       0.140000
     35 H4          -2.2290     0.9350     0.3190 ha         1 4P1       0.205000
     36 H5          -4.6890     0.9540     0.2050 ha         1 4P1       0.141000
     37 H6          -8.8550    -2.2590    -2.1690 ha         1 4P1       0.146000
     38 H7         -10.1790    -1.1560    -0.4130 ha         1 4P1       0.129000
     39 H8          -6.5630    -0.0500     1.6210 ha         1 4P1       0.170000
     40 H9           4.1080     0.0010     2.1350 ha         1 4P1       0.155000
     41 H10          5.3310    -0.0030    -0.0020 ha         1 4P1       0.147000
     42 H11          4.1050    -0.0100    -2.1360 ha         1 4P1       0.153000
     43 H12        -11.0590    -0.3170     0.9320 hn         1 4P1       0.313500
     44 H13        -12.4430     0.6880     2.5160 h1         1 4P1       0.042700
     45 H14        -11.1790     0.3260     3.7000 h1         1 4P1       0.042700
     46 H15        -11.1280     1.8400     2.7860 h1         1 4P1       0.042700
     47 H16         -0.5400    -3.0320    -1.7840 hc         1 4P1       0.057200
     48 H17         -0.0320    -4.3730    -0.7400 hc         1 4P1       0.057200
     49 H18          1.0870    -2.2860    -0.0600 h1         1 4P1       0.060200
     50 H19         -0.0770    -2.8070     1.2120 h1         1 4P1       0.060200
@<TRIPOS>BOND
     1    22    21 1
     2    21    15 1
     3    15    20 2
     4    15    14 1
     5    13    14 ar
     6    13    12 ar
     7    14    16 ar
     8    12    23 ar
     9    16    25 ar
    10    23    25 ar
    11    23    24 1
    12    25    11 1
    13    11    10 ar
    14    11     8 ar
    15    10     9 ar
    16     8     7 ar
    17     9     6 ar
    18     7     6 ar
    19     7     5 1
    20     6    28 1
    21     5    26 1
    22    28     1 1
    23    28    27 1
    24     1    29 2
    25     1     2 1
    26    27    26 1
    27     2     3 ar
    28     2     4 ar
    29    30     3 1
    30    31     4 1
    31     3    17 ar
    32     4    19 ar
    33    17    18 ar
    34    19    18 ar
    35     5    32 1
    36     5    33 1
    37     8    34 1
    38     9    35 1
    39    10    36 1
    40    12    37 1
    41    13    38 1
    42    16    39 1
    43    17    40 1
    44    18    41 1
    45    19    42 1
    46    21    43 1
    47    22    44 1
    48    22    45 1
    49    22    46 1
    50    26    47 1
    51    26    48 1
    52    27    49 1
    53    27    50 1
@<TRIPOS>SUBSTRUCTURE
     1 4P1         1 TEMP              0 ****  ****    0 ROOT
