@<TRIPOS>MOLECULE
4P1
   50    53     1     0     0
SMALL
bcc


@<TRIPOS>ATOM
      1 C1           0.0000     0.0000     0.0000 c          1 4P1       0.602700
      2 C2           1.4760     0.0000     0.0000 ca         1 4P1      -0.178600
      3 C3           2.1790     0.0000     1.2090 ca         1 4P1       0.147900
      4 C7           2.1790    -0.0060    -1.2090 ca         1 4P1       0.009400
      5 C10         -2.0330    -3.6790    -0.3810 c3         1 4P1       0.039900
      6 C11         -2.0730    -1.1830    -0.0030 ca         1 4P1      -0.064400
      7 C12         -2.7600    -2.3690    -0.2190 ca         1 4P1      -0.120300
      8 C13         -4.1400    -2.3600    -0.2840 ca         1 4P1      -0.076000
      9 C14         -2.7700     0.0120     0.1490 ca         1 4P1      -0.161000
     10 C15         -4.1470     0.0240     0.0860 ca         1 4P1      -0.060000
     11 C16         -4.8400    -1.1660    -0.1330 cp         1 4P1      -0.066000
     12 C19         -8.3540    -1.7750    -1.3390 ca         1 4P1      -0.108000
     13 C20         -9.0970    -1.1570    -0.3540 ca         1 4P1      -0.082000
     14 C21         -8.4570    -0.5310     0.7180 ca         1 4P1      -0.154600
     15 C22         -9.2530     0.1310     1.7720 c          1 4P1       0.594700
     16 C24         -7.0640    -0.5340     0.7920 ca         1 4P1      -0.019000
     17 C4           3.5620    -0.0010     1.2000 ca         1 4P1      -0.137000
     18 C5           4.2480    -0.0020    -0.0010 ca         1 4P1      -0.049000
     19 C6           3.5590    -0.0070    -1.2000 ca         1 4P1      -0.116000
     20 O2          -8.6940     0.6750     2.7050 o          1 4P1      -0.645100
     21 N2         -10.5990     0.1320     1.6990 ns         1 4P1      -0.199900
     22 C23        -11.3890     0.7890     2.7430 c3         1 4P1       0.087300
     23 C18         -6.9730    -1.7810    -1.2710 ca         1 4P1      -0.013600
     24 Cl2         -6.0480    -2.5680    -2.5100 cl         1 4P1      -0.014400
     25 C17         -6.3220    -1.1590    -0.2040 cp         1 4P1      -0.029000
     26 C9          -0.5780    -3.4380    -0.7800 c3         1 4P1      -0.044400
     27 C8           0.0470    -2.4380     0.2010 c3         1 4P1       0.018000
     28 N1          -0.6740    -1.1650     0.0630 n          1 4P1       0.041000
     29 O1          -0.6080     1.0520    -0.0510 o          1 4P1      -0.611100
     30 F            1.5100     0.0010     2.3830 f          1 4P1      -0.118900
     31 Cl1          1.3180    -0.0140    -2.7150 cl         1 4P1       0.010600
     32 H1          -2.0490    -4.2030     0.5670 hc         1 4P1       0.025700
     33 H2          -2.5170    -4.2470    -1.1670 hc         1 4P1       0.025700
     34 H3          -4.6790    -3.2840    -0.4540 ha         1 4P1       0.115000
     35 H4          -2.2290     0.9350     0.3190 ha         1 4P1       0.194000
     36 H5          -4.6890     0.9540     0.2050 ha         1 4P1       0.112000
     37 H6          -8.8550    -2.2590    -2.1690 ha         1 4P1       0.116000
     38 H7         -10.1790    -1.1560    -0.4130 ha         1 4P1       0.103000
     39 H8          -6.5630    -0.0500     1.6210 ha         1 4P1       0.139000
     40 H9           4.1080     0.0010     2.1350 ha         1 4P1       0.125000
     41 H10          5.3310    -0.0030    -0.0020 ha         1 4P1       0.111000
     42 H11          4.1050    -0.0100    -2.1360 ha         1 4P1       0.122000
     43 H12        -11.0590    -0.3170     0.9320 hn         1 4P1       0.175500
     44 H13        -12.4430     0.6880     2.5160 h1         1 4P1       0.009700
     45 H14        -11.1790     0.3260     3.7000 h1         1 4P1       0.009700
     46 H15        -11.1280     1.8400     2.7860 h1         1 4P1       0.009700
     47 H16         -0.5400    -3.0320    -1.7840 hc         1 4P1       0.026200
     48 H17         -0.0320    -4.3730    -0.7400 hc         1 4P1       0.026200
     49 H18          1.0870    -2.2860    -0.0600 h1         1 4P1       0.035200
     50 H19         -0.0770    -2.8070     1.2120 h1         1 4P1       0.035200
@<TRIPOS>BOND
     1     1     2 1   
     2     1    28 1   
     3     1    29 2   
     4     2     3 ar  
     5     2     4 ar  
     6     3    17 ar  
     7     3    30 1   
     8     4    19 ar  
     9     4    31 1   
    10     5     7 1   
    11     5    26 1   
    12     5    32 1   
    13     5    33 1   
    14     6     7 ar  
    15     6     9 ar  
    16     6    28 1   
    17     7     8 ar  
    18     8    11 ar  
    19     8    34 1   
    20     9    10 ar  
    21     9    35 1   
    22    10    11 ar  
    23    10    36 1   
    24    11    25 1   
    25    12    13 ar  
    26    12    23 ar  
    27    12    37 1   
    28    13    14 ar  
    29    13    38 1   
    30    14    15 1   
    31    14    16 ar  
    32    15    20 2   
    33    15    21 1   
    34    16    25 ar  
    35    16    39 1   
    36    17    18 ar  
    37    17    40 1   
    38    18    19 ar  
    39    18    41 1   
    40    19    42 1   
    41    21    22 1   
    42    21    43 1   
    43    22    44 1   
    44    22    45 1   
    45    22    46 1   
    46    23    24 1   
    47    23    25 ar  
    48    26    27 1   
    49    26    47 1   
    50    26    48 1   
    51    27    28 1   
    52    27    49 1   
    53    27    50 1   
@<TRIPOS>SUBSTRUCTURE
     1 4P1         1 TEMP              0 ****  ****    0 ROOT
