@<TRIPOS>MOLECULE
molecule
   51    53     1     0     0
SMALL
bcc


@<TRIPOS>ATOM
      1 O2           0.0000     0.0000     0.0000 o          1 4P3      -0.413100
      2 C20          1.2150     0.0000     0.0000 c          1 4P3       0.507700
      3 N1           1.8900     0.0000     1.1670 nz         1 4P3      -0.679400
      4 C19          1.9540    -0.0060    -1.2800 ca         1 4P3      -0.218600
      5 C21          3.3510    -0.0060    -1.2830 ca         1 4P3      -0.110000
      6 C22          4.0410    -0.0130    -2.4760 ca         1 4P3      -0.107000
      7 C            3.3560    -0.0180    -3.6780 ca         1 4P3       0.090400
      8 Cl           4.2340    -0.0260    -5.1760 cl         1 4P3      -0.030400
      9 C18          1.2580    -0.0170    -2.4880 ca         1 4P3      -0.010000
     10 C1           1.9590    -0.0190    -3.6880 cp         1 4P3      -0.010000
     11 C2           1.2270    -0.0300    -4.9780 cp         1 4P3      -0.046000
     12 C17          1.5530     0.8880    -5.9750 ca         1 4P3      -0.193000
     13 C14          0.8670     0.8740    -7.1760 ca         1 4P3       0.155100
     14 O1           1.1850     1.7680    -8.1490 os         1 4P3      -0.290900
     15 C15          2.2370     2.6930    -7.8640 c3         1 4P3       0.082400
     16 C16          2.4480     3.6120    -9.0700 c3         1 4P3       0.628900
     17 F3           3.4780     4.5180    -8.7900 f          1 4P3      -0.211633
     18 F2           2.7930     2.8440   -10.1870 f          1 4P3      -0.211633
     19 F1           1.2680     4.3150    -9.3330 f          1 4P3      -0.211633
     20 C5          -0.1480    -0.0570    -7.3860 ca         1 4P3       0.072600
     21 C4          -0.4720    -0.9700    -6.3930 ca         1 4P3      -0.077000
     22 C3           0.2150    -0.9630    -5.1960 ca         1 4P3      -0.134000
     23 N           -0.8420    -0.0710    -8.6020 n          1 4P3      -0.402000
     24 C6          -0.3580    -0.8940    -9.7130 c3         1 4P3       0.098300
     25 C7          -1.9550     0.6730    -8.7510 c          1 4P3       0.693700
     26 O           -2.3570     1.3570    -7.8290 o          1 4P3      -0.567100
     27 C8          -2.6880     0.6580   -10.0330 ca         1 4P3      -0.175600
     28 C13         -2.3640     1.5760   -11.0370 ca         1 4P3       0.075400
     29 Cl1         -1.1000     2.7390   -10.7790 cl         1 4P3      -0.067400
     30 C12         -3.0540     1.5560   -12.2330 ca         1 4P3      -0.137000
     31 C11         -4.0620     0.6320   -12.4410 ca         1 4P3      -0.076000
     32 C10         -4.3880    -0.2800   -11.4530 ca         1 4P3      -0.167000
     33 C9          -3.7040    -0.2770   -10.2520 ca         1 4P3       0.168900
     34 F           -4.0240    -1.1690    -9.2880 f          1 4P3      -0.129900
     35 H1           2.4640    -0.8180     1.2200 hn         1 4P3       0.478133
     36 H2           2.4660     0.8160     1.2190 hn         1 4P3       0.478133
     37 H3           3.8930    -0.0030    -0.3450 ha         1 4P3       0.114000
     38 H4           5.1250    -0.0130    -2.4730 ha         1 4P3       0.174000
     39 H5           0.1750    -0.0180    -2.4910 ha         1 4P3       0.182000
     40 H6           2.2910     1.6580    -5.7820 ha         1 4P3       0.143000
     41 H7           1.9700     3.2880    -6.9990 h1         1 4P3       0.069200
     42 H8           3.1510     2.1490    -7.6610 h1         1 4P3       0.069200
     43 H9          -1.2600    -1.6940    -6.5600 ha         1 4P3       0.163000
     44 H10         -0.0400    -1.6760    -4.4220 ha         1 4P3       0.137000
     45 H11         -1.0970    -1.6500    -9.9520 h1         1 4P3       0.049367
     46 H12         -0.1900    -0.2670   -10.5800 h1         1 4P3       0.049367
     47 H13          0.5710    -1.3740    -9.4290 h1         1 4P3       0.049367
     48 H14         -2.8040     2.2670   -13.0110 ha         1 4P3       0.157000
     49 H15         -4.6000     0.6230   -13.3810 ha         1 4P3       0.152000
     50 H16         -5.1770    -1.0030   -11.6230 ha         1 4P3       0.157000
     51 H131         1.2450     0.1040     1.9250 hn         1 4P3       0.478133
@<TRIPOS>BOND
     1    17    16 1
     2    18    16 1
     3    16    19 1
     4    16    15 1
     5    15    14 1
     6    14    13 1
     7    34    33 1
     8    13    12 ar
     9    13    20 ar
    10    12    11 ar
    11    33    32 ar
    12    33    27 ar
    13    24    23 1
    14    32    31 ar
    15    23    20 1
    16    23    25 1
    17    20    21 ar
    18    11    10 1
    19    11    22 ar
    20     9    10 ar
    21     9     4 ar
    22    10     7 ar
    23     1     2 2
    24     3     2 1
    25     2     4 1
    26    26    25 2
    27     4     5 ar
    28    25    27 1
    29     7     8 1
    30     7     6 ar
    31     5     6 ar
    32    27    28 ar
    33    31    30 ar
    34    21    22 ar
    35    28    30 ar
    36    28    29 1
    37     3    35 1
    38     3    36 1
    39     5    37 1
    40     6    38 1
    41     9    39 1
    42    12    40 1
    43    15    41 1
    44    15    42 1
    45    21    43 1
    46    22    44 1
    47    24    45 1
    48    24    46 1
    49    24    47 1
    50    30    48 1
    51    31    49 1
    52    32    50 1
    53    51     3 1
@<TRIPOS>SUBSTRUCTURE
     1 4P3         1 TEMP              0 ****  ****    0 ROOT
