@<TRIPOS>MOLECULE
4P3
   51    53     1     0     0
SMALL
bcc


@<TRIPOS>ATOM
      1 O2           0.0000     0.0000     0.0000 o          1 4P3      -0.426100
      2 C20          1.2150     0.0000     0.0000 c          1 4P3       0.357700
      3 N1           1.8900     0.0000     1.1670 nz         1 4P3       0.199600
      4 C19          1.9540    -0.0060    -1.2800 ca         1 4P3      -0.244600
      5 C21          3.3510    -0.0060    -1.2830 ca         1 4P3      -0.080000
      6 C22          4.0410    -0.0130    -2.4760 ca         1 4P3      -0.077000
      7 C            3.3560    -0.0180    -3.6780 ca         1 4P3       0.012400
      8 Cl           4.2340    -0.0260    -5.1760 cl         1 4P3       0.071600
      9 C18          1.2580    -0.0170    -2.4880 ca         1 4P3       0.031000
     10 C1           1.9590    -0.0190    -3.6880 cp         1 4P3      -0.009000
     11 C2           1.2270    -0.0300    -4.9780 cp         1 4P3      -0.035000
     12 C17          1.5530     0.8880    -5.9750 ca         1 4P3      -0.198000
     13 C14          0.8670     0.8740    -7.1760 ca         1 4P3       0.175100
     14 O1           1.1850     1.7680    -8.1490 os         1 4P3      -0.270900
     15 C15          2.2370     2.6930    -7.8640 c3         1 4P3       0.139400
     16 C16          2.4480     3.6120    -9.0700 c3         1 4P3       0.576900
     17 F3           3.4780     4.5180    -8.7900 f          1 4P3      -0.197633
     18 F2           2.7930     2.8440   -10.1870 f          1 4P3      -0.197633
     19 F1           1.2680     4.3150    -9.3330 f          1 4P3      -0.197633
     20 C5          -0.1480    -0.0570    -7.3860 ca         1 4P3      -0.062400
     21 C4          -0.4720    -0.9700    -6.3930 ca         1 4P3      -0.035000
     22 C3           0.2150    -0.9630    -5.1960 ca         1 4P3      -0.111000
     23 N           -0.8420    -0.0710    -8.6020 n          1 4P3      -0.034000
     24 C6          -0.3580    -0.8940    -9.7130 c3         1 4P3       0.071300
     25 C7          -1.9550     0.6730    -8.7510 c          1 4P3       0.615700
     26 O           -2.3570     1.3570    -7.8290 o          1 4P3      -0.612100
     27 C8          -2.6880     0.6580   -10.0330 ca         1 4P3      -0.177600
     28 C13         -2.3640     1.5760   -11.0370 ca         1 4P3       0.007400
     29 Cl1         -1.1000     2.7390   -10.7790 cl         1 4P3       0.012600
     30 C12         -3.0540     1.5560   -12.2330 ca         1 4P3      -0.111000
     31 C11         -4.0620     0.6320   -12.4410 ca         1 4P3      -0.044000
     32 C10         -4.3880    -0.2800   -11.4530 ca         1 4P3      -0.133000
     33 C9          -3.7040    -0.2770   -10.2520 ca         1 4P3       0.143900
     34 F           -4.0240    -1.1690    -9.2880 f          1 4P3      -0.123900
     35 H1           2.4640    -0.8180     1.2200 hn         1 4P3       0.247467
     36 H2           2.4660     0.8160     1.2190 hn         1 4P3       0.247467
     37 H3           3.8930    -0.0030    -0.3450 ha         1 4P3       0.083000
     38 H4           5.1250    -0.0130    -2.4730 ha         1 4P3       0.137000
     39 H5           0.1750    -0.0180    -2.4910 ha         1 4P3       0.145000
     40 H6           2.2910     1.6580    -5.7820 ha         1 4P3       0.128000
     41 H7           1.9700     3.2880    -6.9990 h1         1 4P3       0.034700
     42 H8           3.1510     2.1490    -7.6610 h1         1 4P3       0.034700
     43 H9          -1.2600    -1.6940    -6.5600 ha         1 4P3       0.126000
     44 H10         -0.0400    -1.6760    -4.4220 ha         1 4P3       0.110000
     45 H11         -1.0970    -1.6500    -9.9520 h1         1 4P3       0.018033
     46 H12         -0.1900    -0.2670   -10.5800 h1         1 4P3       0.018033
     47 H13          0.5710    -1.3740    -9.4290 h1         1 4P3       0.018033
     48 H14         -2.8040     2.2670   -13.0110 ha         1 4P3       0.125000
     49 H15         -4.6000     0.6230   -13.3810 ha         1 4P3       0.115000
     50 H16         -5.1770    -1.0030   -11.6230 ha         1 4P3       0.127000
     51 H131         1.2450     0.1040     1.9250 hn         1 4P3       0.247467
@<TRIPOS>BOND
     1     1     2 2   
     2     2     3 1   
     3     2     4 1   
     4     3    35 1   
     5     3    36 1   
     6     3    51 1   
     7     4     5 ar  
     8     4     9 ar  
     9     5     6 ar  
    10     5    37 1   
    11     6     7 ar  
    12     6    38 1   
    13     7     8 1   
    14     7    10 ar  
    15     9    10 ar  
    16     9    39 1   
    17    10    11 1   
    18    11    12 ar  
    19    11    22 ar  
    20    12    13 ar  
    21    12    40 1   
    22    13    14 1   
    23    13    20 ar  
    24    14    15 1   
    25    15    16 1   
    26    15    41 1   
    27    15    42 1   
    28    16    17 1   
    29    16    18 1   
    30    16    19 1   
    31    20    21 ar  
    32    20    23 1   
    33    21    22 ar  
    34    21    43 1   
    35    22    44 1   
    36    23    24 1   
    37    23    25 1   
    38    24    45 1   
    39    24    46 1   
    40    24    47 1   
    41    25    26 2   
    42    25    27 1   
    43    27    28 ar  
    44    27    33 ar  
    45    28    29 1   
    46    28    30 ar  
    47    30    31 ar  
    48    30    48 1   
    49    31    32 ar  
    50    31    49 1   
    51    32    33 ar  
    52    32    50 1   
    53    33    34 1   
@<TRIPOS>SUBSTRUCTURE
     1 4P3         1 TEMP              0 ****  ****    0 ROOT
