@<TRIPOS>MOLECULE
4P4
   50    54     1     0     0
SMALL
bcc


@<TRIPOS>ATOM
      1 C4           0.0000     0.0000     0.0000 ca         1 4P4      -0.100000
      2 C5           1.3830     0.0000     0.0000 ca         1 4P4       0.098900
      3 C6           2.0770     0.0000     1.1990 ca         1 4P4      -0.124000
      4 C11         -4.8980     0.0210     1.2350 ca         1 4P4      -0.085300
      5 C8          -2.1760     0.0120     1.2160 cp         1 4P4       0.436800
      6 C9          -2.8560     0.0230     2.4430 ca         1 4P4      -0.199300
      7 C10         -4.2210     0.0280     2.4620 ca         1 4P4      -0.071000
      8 C12         -6.3570     0.0260     1.1420 ca         1 4P4      -0.266900
      9 C13         -6.9390     0.0240    -0.1200 ca         1 4P4       0.439200
     10 C3          -0.6930     0.0070     1.2080 cp         1 4P4      -0.132500
     11 C1           1.3920     0.0010     2.4000 ca         1 4P4      -0.078000
     12 C2           0.0120     0.0070     2.4110 ca         1 4P4      -0.106000
     13 F7           2.0580    -0.0010    -1.1710 f          1 4P4      -0.128900
     14 N14         -6.2160     0.0190    -1.2230 nb         1 4P4      -0.610000
     15 C15         -4.8950     0.0140    -1.2310 ca         1 4P4       0.506900
     16 C16         -4.1560     0.0150     0.0290 ca         1 4P4       0.235300
     17 N17         -2.8260     0.0100     0.0660 nb         1 4P4      -0.539000
     18 N18         -4.2150     0.0080    -2.4290 nv         1 4P4      -0.643500
     19 C19         -7.1900     0.0320     2.3560 c          1 4P4       0.616700
     20 O20         -6.6650     0.0330     3.4530 o          1 4P4      -0.656100
     21 N21         -8.5330     0.0370     2.2520 ns         1 4P4      -0.175900
     22 C22         -9.3610     0.0430     3.4600 cy         1 4P4      -0.026300
     23 C23        -10.7630     0.6440     3.2470 cy         1 4P4       0.049500
     24 N24        -11.2570    -0.4710     4.0790 nj         1 4P4      -0.195800
     25 C25        -10.0820    -1.2920     3.7240 cy         1 4P4       0.049500
     26 C26        -12.3430    -0.6630     4.8520 c          1 4P4       0.665100
     27 O27        -13.1720     0.2150     4.9630 o          1 4P4      -0.641100
     28 C28        -12.5290    -1.9690     5.5810 cx         1 4P4      -0.214700
     29 C29        -13.7830    -2.1260     6.4430 cx         1 4P4      -0.050400
     30 C30        -13.6680    -2.8810     5.1180 cx         1 4P4      -0.050400
     31 H1          -0.5430     0.0000    -0.9370 ha         1 4P4       0.139000
     32 H2           3.1610    -0.0030     1.1960 ha         1 4P4       0.118000
     33 H3          -2.3010     0.1180     3.3690 ha         1 4P4       0.124000
     34 H4          -4.7660     0.0370     3.3990 ha         1 4P4       0.175000
     35 H5          -8.0200     0.0280    -0.2000 h4         1 4P4      -0.028900
     36 H6           1.9390     0.0010     3.3350 ha         1 4P4       0.108000
     37 H7          -0.5230     0.0100     3.3530 ha         1 4P4       0.114000
     38 H8          -3.9820     0.8720    -2.8760 hn         1 4P4       0.284800
     39 H9          -3.9880    -0.8610    -2.8710 hn         1 4P4       0.284800
     40 H10         -8.9640     0.0710     1.3490 hn         1 4P4       0.183500
     41 H11         -8.8660     0.4340     4.3410 h1         1 4P4       0.090700
     42 H12        -10.8870     1.6120     3.7160 h1         1 4P4       0.033200
     43 H13        -11.0980     0.5880     2.2190 h1         1 4P4       0.033200
     44 H14         -9.6730    -1.8370     4.5660 h1         1 4P4       0.033200
     45 H15        -10.2290    -1.8810     2.8270 h1         1 4P4       0.033200
     46 H16        -11.6550    -2.4900     5.9530 hc         1 4P4       0.063700
     47 H17        -13.6650    -2.7280     7.3360 hc         1 4P4       0.051950
     48 H18        -14.4600    -1.2800     6.4420 hc         1 4P4       0.051950
     49 H19        -14.2740    -2.4970     4.3060 hc         1 4P4       0.051950
     50 H20        -13.4780    -3.9440     5.2000 hc         1 4P4       0.051950
@<TRIPOS>BOND
     1     1     2 ar  
     2     1    10 ar  
     3     1    31 1   
     4     2     3 ar  
     5     2    13 1   
     6     3    11 ar  
     7     3    32 1   
     8     4     7 ar  
     9     4     8 ar  
    10     4    16 ar  
    11     5     6 ar  
    12     5    10 1   
    13     5    17 ar  
    14     6     7 ar  
    15     6    33 1   
    16     7    34 1   
    17     8     9 ar  
    18     8    19 1   
    19     9    14 ar  
    20     9    35 1   
    21    10    12 ar  
    22    11    12 ar  
    23    11    36 1   
    24    12    37 1   
    25    14    15 ar  
    26    15    16 ar  
    27    15    18 1   
    28    16    17 ar  
    29    18    38 1   
    30    18    39 1   
    31    19    20 2   
    32    19    21 1   
    33    21    22 1   
    34    21    40 1   
    35    22    23 1   
    36    22    25 1   
    37    22    41 1   
    38    23    24 1   
    39    23    42 1   
    40    23    43 1   
    41    24    25 1   
    42    24    26 1   
    43    25    44 1   
    44    25    45 1   
    45    26    27 2   
    46    26    28 1   
    47    28    29 1   
    48    28    30 1   
    49    28    46 1   
    50    29    30 1   
    51    29    47 1   
    52    29    48 1   
    53    30    49 1   
    54    30    50 1   
@<TRIPOS>SUBSTRUCTURE
     1 4P4         1 TEMP              0 ****  ****    0 ROOT
