@<TRIPOS>MOLECULE
4P5
   15    16     1     0     0
SMALL
bcc


@<TRIPOS>ATOM
      1 C2          0.0110    0.2670   -0.0310 cc        1 4P5      0.203000
      2 C3          1.3780   -0.2110    0.0300 cd        1 4P5     -0.257600
      3 C5          0.7280   -0.0190   -2.1090 cc        1 4P5      0.187600
      4 C7          0.6240    0.0880    2.1290 cd        1 4P5     -0.093900
      5 C9          0.6890    0.0910    3.6490 c         1 4P5      0.930200
      6 O11        -0.3390    0.4620    4.2740 o         1 4P5     -0.819800
      7 O10         1.7740   -0.2800    4.1790 o         1 4P5     -0.819800
      8 N8          1.7240   -0.3090    1.3610 na        1 4P5     -0.134100
      9 C6         -0.4610    0.4540    1.2890 cc        1 4P5     -0.261300
     10 O1         -0.3910    0.3850   -1.3500 os        1 4P5     -0.354800
     11 C4          1.8080   -0.3840   -1.3250 cd        1 4P5     -0.216300
     12 H5          0.5570    0.0230   -3.1780 h4        1 4P5      0.025100
     13 H6         -1.4290    0.7980    1.6310 ha        1 4P5      0.164000
     14 H4          2.7780   -0.7290   -1.6640 ha        1 4P5      0.139000
     15 HN8         2.5830   -0.6040    1.7450 hn        1 4P5      0.308700
@<TRIPOS>BOND
     1    1    2 2
     2    1    9 1
     3    1   10 1
     4    2    8 1
     5    2   11 1
     6    3   10 1
     7    3   11 2
     8    3   12 1
     9    4    5 1
    10    4    8 1
    11    4    9 2
    12    5    6 1
    13    5    7 1
    14    8   15 1
    15    9   13 1
    16   11   14 1
@<TRIPOS>SUBSTRUCTURE
     1 4P5         1 TEMP              0 ****  ****    0 ROOT
