@<TRIPOS>MOLECULE
4P6
   32    34     1     0     0
SMALL
bcc


@<TRIPOS>ATOM
      1 C1           0.0000     0.0000     0.0000 ca         1 4P6      -0.226300
      2 C2           5.0370    -3.5160    -3.3820 cc         1 4P6      -0.126000
      3 C3           1.3840     0.0000     0.0000 ca         1 4P6      -0.077000
      4 C4           4.1790    -3.2580    -2.3380 cc         1 4P6      -0.109000
      5 C5          -0.6760    -0.0010     1.2070 ca         1 4P6       0.409200
      6 C6           1.2930    -0.0000     2.4030 ca         1 4P6       0.438200
      7 C7           5.9480    -2.5650    -3.6170 cd         1 4P6      -0.033100
      8 C8           2.0480     0.0000     1.2310 ca         1 4P6      -0.247200
      9 C9           4.4170    -2.0550    -1.7280 cd         1 4P6       0.024100
     10 C10          3.5290     0.0000     1.2890 ce         1 4P6       0.484200
     11 C11          4.2950    -0.7040     0.2510 ce         1 4P6      -0.206800
     12 C12          3.6880    -1.5310    -0.6310 cf         1 4P6      -0.053200
     13 C13          5.7920    -0.4690     0.2080 c3         1 4P6      -0.009200
     14 C14          6.2820    -0.4350     1.6630 c3         1 4P6      -0.054400
     15 C15          5.5820     0.7070     2.3960 c3         1 4P6       0.156800
     16 N16         -0.0230    -0.0020     2.3530 nb         1 4P6      -0.586000
     17 N17          4.1340     0.6290     2.2530 n2         1 4P6      -0.512900
     18 S18          5.7710    -1.2660    -2.5250 ss         1 4P6      -0.217800
     19 H19         -0.5480     0.0000    -0.9350 ha         1 4P6       0.114000
     20 H21          1.9390     0.0000    -0.9300 ha         1 4P6       0.125000
     21 H22          3.3920    -3.9360    -2.0320 ha         1 4P6       0.126000
     22 H23         -1.7590    -0.0010     1.2110 h4         1 4P6      -0.021900
     23 H24          1.7940    -0.0010     3.3640 h4         1 4P6      -0.003900
     24 H25          6.6960    -2.6110    -4.3990 h4         1 4P6       0.150000
     25 H26          2.6160    -1.6820    -0.5780 ha         1 4P6       0.137000
     26 H28          6.0030     0.4780    -0.2740 hc         1 4P6       0.046700
     27 H27          6.2770    -1.2780    -0.3260 hc         1 4P6       0.046700
     28 H30          7.3530    -0.2720     1.6800 hc         1 4P6       0.024200
     29 H29          6.0450    -1.3750     2.1470 hc         1 4P6       0.024200
     30 H32          5.9250     1.6500     1.9890 h1         1 4P6       0.028200
     31 H31          5.8340     0.6570     3.4490 h1         1 4P6       0.028200
     32 H20          4.9820    -4.4250    -3.9690 ha         1 4P6       0.120000
@<TRIPOS>BOND
     1     1     3 ar  
     2     1     5 ar  
     3     1    19 1   
     4     2     4 1   
     5     2     7 2   
     6     2    32 1   
     7     3     8 ar  
     8     3    20 1   
     9     4     9 2   
    10     4    21 1   
    11     5    16 ar  
    12     5    22 1   
    13     6     8 ar  
    14     6    16 ar  
    15     6    23 1   
    16     7    18 1   
    17     7    24 1   
    18     8    10 1   
    19     9    12 1   
    20     9    18 1   
    21    10    11 1   
    22    10    17 2   
    23    11    12 2   
    24    11    13 1   
    25    12    25 1   
    26    13    14 1   
    27    13    26 1   
    28    13    27 1   
    29    14    15 1   
    30    14    28 1   
    31    14    29 1   
    32    15    17 1   
    33    15    30 1   
    34    15    31 1   
@<TRIPOS>SUBSTRUCTURE
     1 4P6         1 TEMP              0 ****  ****    0 ROOT
