@<TRIPOS>MOLECULE
molecule
   32    34     1     0     0
SMALL
bcc


@<TRIPOS>ATOM
      1 C1           0.0000     0.0000     0.0000 ca         1 4P6      -0.261300
      2 C2           5.0370    -3.5160    -3.3820 cc         1 4P6      -0.159000
      3 C3           1.3840     0.0000     0.0000 ca         1 4P6      -0.088000
      4 C4           4.1790    -3.2580    -2.3380 cc         1 4P6      -0.134000
      5 C5          -0.6760    -0.0010     1.2070 ca         1 4P6       0.427200
      6 C6           1.2930    -0.0000     2.4030 ca         1 4P6       0.458200
      7 C7           5.9480    -2.5650    -3.6170 cd         1 4P6      -0.116100
      8 C8           2.0480     0.0000     1.2310 ca         1 4P6      -0.250200
      9 C9           4.4170    -2.0550    -1.7280 cd         1 4P6      -0.035900
     10 C10          3.5290     0.0000     1.2890 ce         1 4P6       0.521200
     11 C11          4.2950    -0.7040     0.2510 ce         1 4P6      -0.225800
     12 C12          3.6880    -1.5310    -0.6310 cf         1 4P6      -0.060200
     13 C13          5.7920    -0.4690     0.2080 c3         1 4P6      -0.052200
     14 C14          6.2820    -0.4350     1.6630 c3         1 4P6      -0.111400
     15 C15          5.5820     0.7070     2.3960 c3         1 4P6       0.121800
     16 N16         -0.0230    -0.0020     2.3530 nb         1 4P6      -0.693000
     17 N17          4.1340     0.6290     2.2530 n2         1 4P6      -0.603900
     18 S18          5.7710    -1.2660    -2.5250 ss         1 4P6      -0.082800
     19 H19         -0.5480     0.0000    -0.9350 ha         1 4P6       0.140000
     20 H21          1.9390     0.0000    -0.9300 ha         1 4P6       0.148000
     21 H22          3.3920    -3.9360    -2.0320 ha         1 4P6       0.154000
     22 H23         -1.7590    -0.0010     1.2110 h4         1 4P6       0.023100
     23 H24          1.7940    -0.0010     3.3640 h4         1 4P6       0.042100
     24 H25          6.6960    -2.6110    -4.3990 h4         1 4P6       0.171000
     25 H26          2.6160    -1.6820    -0.5780 ha         1 4P6       0.154000
     26 H28          6.0030     0.4780    -0.2740 hc         1 4P6       0.064200
     27 H27          6.2770    -1.2780    -0.3260 hc         1 4P6       0.064200
     28 H30          7.3530    -0.2720     1.6800 hc         1 4P6       0.053200
     29 H29          6.0450    -1.3750     2.1470 hc         1 4P6       0.053200
     30 H32          5.9250     1.6500     1.9890 h1         1 4P6       0.066700
     31 H31          5.8340     0.6570     3.4490 h1         1 4P6       0.066700
     32 H20          4.9820    -4.4250    -3.9690 ha         1 4P6       0.147000
@<TRIPOS>BOND
     1     1     5 ar
     2     1     3 ar
     3     5    16 ar
     4     3     8 ar
     5    16     6 ar
     6     8     6 ar
     7     8    10 1
     8    17    10 2
     9    17    15 1
    10    10    11 1
    11    15    14 1
    12    14    13 1
    13    11    13 1
    14    11    12 2
    15    12     9 1
    16     9    18 1
    17     9     4 2
    18    18     7 1
    19     4     2 1
    20     7     2 2
    21     1    19 1
    22     2    32 1
    23     3    20 1
    24     4    21 1
    25     5    22 1
    26     6    23 1
    27     7    24 1
    28    12    25 1
    29    13    26 1
    30    13    27 1
    31    14    28 1
    32    14    29 1
    33    15    30 1
    34    15    31 1
@<TRIPOS>SUBSTRUCTURE
     1 4P6         1 TEMP              0 ****  ****    0 ROOT
