@<TRIPOS>MOLECULE
molecule
   33    35     1     0     0
SMALL
bcc


@<TRIPOS>ATOM
      1 C17          0.0000     0.0000     0.0000 ca         1 4P7      -0.263300
      2 C16          1.3840     0.0000     0.0000 ca         1 4P7      -0.087000
      3 C4           5.7360    -1.6710    -2.2480 cc         1 4P7      -0.198000
      4 C18         -0.6760     0.0060     1.2070 ca         1 4P7       0.424200
      5 C14          1.2940    -0.0000     2.4040 ca         1 4P7       0.456200
      6 C3           6.0440    -2.4740    -3.2830 cd         1 4P7      -0.162300
      7 C1           4.0680    -3.1900    -2.5340 cd         1 4P7      -0.134300
      8 C15          2.0480     0.0000     1.2310 ca         1 4P7      -0.246200
      9 C5           4.4370    -2.1250    -1.7390 cc         1 4P7      -0.159800
     10 C12          3.5290    -0.0070     1.2880 ce         1 4P7       0.524200
     11 C11          4.2920    -0.7290     0.2580 ce         1 4P7      -0.239800
     12 C6           3.6830    -1.5600    -0.6120 ce         1 4P7      -0.044200
     13 C10          5.7910    -0.5010     0.2120 c3         1 4P7      -0.048200
     14 C9           6.2810    -0.4520     1.6680 c3         1 4P7      -0.117400
     15 C8           5.5850     0.7020     2.3870 c3         1 4P7       0.123800
     16 N13         -0.0220     0.0060     2.3530 nb         1 4P7      -0.696000
     17 N7           4.1380     0.6290     2.2450 n2         1 4P7      -0.612900
     18 N2           5.0440    -3.3850    -3.4540 na         1 4P7      -0.158100
     19 H32         -0.5480    -0.0000    -0.9350 ha         1 4P7       0.138000
     20 H31          1.9390    -0.0020    -0.9300 ha         1 4P7       0.150000
     21 H33         -1.7590     0.0090     1.2120 h4         1 4P7       0.021100
     22 H30          1.7940     0.0000     3.3640 h4         1 4P7       0.042100
     23 H21          6.9430    -2.4080    -3.8830 h4         1 4P7       0.165000
     24 H19          3.1580    -3.7690    -2.4390 h4         1 4P7       0.170000
     25 H23          2.6110    -1.7050    -0.5570 ha         1 4P7       0.139000
     26 H28          6.2720    -1.3180    -0.3110 hc         1 4P7       0.064200
     27 H29          6.0060     0.4390    -0.2810 hc         1 4P7       0.064200
     28 H27          6.0380    -1.3850     2.1620 hc         1 4P7       0.049700
     29 H26          7.3520    -0.2950     1.6830 hc         1 4P7       0.049700
     30 H24          5.8380     0.6650     3.4390 h1         1 4P7       0.063200
     31 H25          5.9320     1.6390     1.9670 h1         1 4P7       0.063200
     32 H20          5.0320    -4.0960    -4.1580 hn         1 4P7       0.293700
     33 H22          6.3300    -0.8490    -1.8660 ha         1 4P7       0.164000
@<TRIPOS>BOND
     1    14    15 1   
     2    14    13 1   
     3    15    17 1   
     4    13    11 1   
     5    17    10 2   
     6     3     6 2   
     7     3     9 1   
     8    11    10 1   
     9    11    12 2   
    10     6    18 1   
    11    10     8 1   
    12     9    12 1   
    13     9     7 2   
    14     8     5 ar  
    15     8     2 ar  
    16    18     7 1   
    17     5    16 ar  
    18     2     1 ar  
    19    16     4 ar  
    20     4     1 ar  
    21     1    19 1   
    22     2    20 1   
    23     3    33 1   
    24     4    21 1   
    25     5    22 1   
    26     6    23 1   
    27     7    24 1   
    28    12    25 1   
    29    13    26 1   
    30    13    27 1   
    31    14    28 1   
    32    14    29 1   
    33    15    30 1   
    34    15    31 1   
    35    18    32 1   
@<TRIPOS>SUBSTRUCTURE
     1 4P7         1 TEMP              0 ****  ****    0 ROOT
