@<TRIPOS>MOLECULE
4P8
   30    31     1     0     0
SMALL
bcc


@<TRIPOS>ATOM
      1 OAP          0.0000     0.0000     0.0000 o          1 4P8      -0.536100
      2 CAO          1.2130     0.0000     0.0000 c          1 4P8       0.673500
      3 CAM          1.9470     0.0000     1.2710 ca         1 4P8      -0.281600
      4 CAK          3.3470     0.0060     1.2770 ca         1 4P8       0.026000
      5 CAN          1.2500    -0.0000     2.4910 ca         1 4P8       0.284100
      6 OAQ         -0.1060    -0.0010     2.5000 oh         1 4P8      -0.461100
      7 CAL          1.9540    -0.0000     3.6850 ca         1 4P8      -0.506200
      8 NAR          1.2250     0.0010     4.9720 no         1 4P8       1.055200
      9 OAT          0.0080    -0.0000     4.9830 o          1 4P8      -0.445500
     10 OAS          1.8440     0.0010     6.0220 o          1 4P8      -0.445500
     11 CAJ          3.3350     0.0000     3.6730 ca         1 4P8       0.029000
     12 CAI          4.0280     0.0060     2.4730 ca         1 4P8      -0.139300
     13 CAH          5.5350     0.0130     2.4780 c3         1 4P8       0.089200
     14 CAB          6.0310     1.4360     2.4820 ca         1 4P8      -0.093300
     15 CAA          6.1570     2.1210     3.6780 ca         1 4P8      -0.034600
     16 ClG          5.7440     1.3420     5.1730 cl         1 4P8      -0.009400
     17 CAF          6.6140     3.4270     3.6810 ca         1 4P8      -0.089000
     18 CAE          6.9440     4.0470     2.4900 ca         1 4P8      -0.087000
     19 CAD          6.8170     3.3610     1.2960 ca         1 4P8      -0.094000
     20 CAC          6.3680     2.0540     1.2930 ca         1 4P8      -0.088000
     21 H1           1.7540     0.0040    -0.9380 h4         1 4P8      -0.034800
     22 H2           3.8930     0.0100     0.3420 ha         1 4P8       0.110000
     23 H3          -0.4210    -0.8890     2.4830 ho         1 4P8       0.429000
     24 H4           3.8810     0.0010     4.6090 ha         1 4P8       0.148000
     25 H5           5.8950    -0.4980     3.3630 hc         1 4P8       0.031700
     26 H6           5.9010    -0.4950     1.5940 hc         1 4P8       0.031700
     27 H7           6.7130     3.9630     4.6170 ha         1 4P8       0.118000
     28 H8           7.2990     5.0700     2.4930 ha         1 4P8       0.109000
     29 H9           7.0780     3.8460     0.3630 ha         1 4P8       0.107000
     30 H10          6.2680     1.5180     0.3570 ha         1 4P8       0.106000
@<TRIPOS>BOND
     1     1     2 2   
     2     2     3 1   
     3     2    21 1   
     4     3     4 ar  
     5     3     5 ar  
     6     4    12 ar  
     7     4    22 1   
     8     5     6 1   
     9     5     7 ar  
    10     6    23 1   
    11     7     8 1   
    12     7    11 ar  
    13     8     9 1   
    14     8    10 1   
    15    11    12 ar  
    16    11    24 1   
    17    12    13 1   
    18    13    14 1   
    19    13    25 1   
    20    13    26 1   
    21    14    15 ar  
    22    14    20 ar  
    23    15    16 1   
    24    15    17 ar  
    25    17    18 ar  
    26    17    27 1   
    27    18    19 ar  
    28    18    28 1   
    29    19    20 ar  
    30    19    29 1   
    31    20    30 1   
@<TRIPOS>SUBSTRUCTURE
     1 4P8         1 TEMP              0 ****  ****    0 ROOT
