@<TRIPOS>MOLECULE
molecule
   30    31     1     0     0
SMALL
bcc


@<TRIPOS>ATOM
      1 OAP          0.0000     0.0000     0.0000 o          1 4P8      -0.496100
      2 CAO          1.2130     0.0000     0.0000 c          1 4P8       0.577500
      3 CAM          1.9470     0.0000     1.2710 ca         1 4P8      -0.237600
      4 CAK          3.3470     0.0060     1.2770 ca         1 4P8      -0.034000
      5 CAN          1.2500    -0.0000     2.4910 ca         1 4P8       0.226100
      6 OAQ         -0.1060    -0.0010     2.5000 oh         1 4P8      -0.477100
      7 CAL          1.9540    -0.0000     3.6850 ca         1 4P8      -0.201200
      8 NAR          1.2250     0.0010     4.9720 no         1 4P8       0.298200
      9 OAT          0.0080    -0.0000     4.9830 o          1 4P8      -0.196000
     10 OAS          1.8440     0.0010     6.0220 o          1 4P8      -0.196000
     11 CAJ          3.3350     0.0000     3.6730 ca         1 4P8      -0.026000
     12 CAI          4.0280     0.0060     2.4730 ca         1 4P8      -0.109300
     13 CAH          5.5350     0.0130     2.4780 c3         1 4P8       0.011200
     14 CAB          6.0310     1.4360     2.4820 ca         1 4P8      -0.082300
     15 CAA          6.1570     2.1210     3.6780 ca         1 4P8       0.031400
     16 ClG          5.7440     1.3420     5.1730 cl         1 4P8      -0.100400
     17 CAF          6.6140     3.4270     3.6810 ca         1 4P8      -0.113000
     18 CAE          6.9440     4.0470     2.4900 ca         1 4P8      -0.116000
     19 CAD          6.8170     3.3610     1.2960 ca         1 4P8      -0.121000
     20 CAC          6.3680     2.0540     1.2930 ca         1 4P8      -0.115000
     21 H1           1.7540     0.0040    -0.9380 h4         1 4P8       0.007200
     22 H2           3.8930     0.0100     0.3420 ha         1 4P8       0.145000
     23 H3          -0.4210    -0.8890     2.4830 ho         1 4P8       0.447000
     24 H4           3.8810     0.0010     4.6090 ha         1 4P8       0.182000
     25 H5           5.8950    -0.4980     3.3630 hc         1 4P8       0.068200
     26 H6           5.9010    -0.4950     1.5940 hc         1 4P8       0.068200
     27 H7           6.7130     3.9630     4.6170 ha         1 4P8       0.149000
     28 H8           7.2990     5.0700     2.4930 ha         1 4P8       0.141000
     29 H9           7.0780     3.8460     0.3630 ha         1 4P8       0.137000
     30 H10          6.2680     1.5180     0.3570 ha         1 4P8       0.134000
@<TRIPOS>BOND
     1    13    14 1
     2    13    12 1
     3    20    14 ar
     4    20    19 ar
     5    14    15 ar
     6    19    18 ar
     7    15    16 1
     8    15    17 ar
     9    18    17 ar
    10    12     4 ar
    11    12    11 ar
    12     4     3 ar
    13    11     7 ar
    14     3     2 1
    15     3     5 ar
    16     7     5 ar
    17     7     8 1
    18     2     1 2
    19     9     8 1
    20     5     6 1
    21     8    10 1
    22     2    21 1
    23     4    22 1
    24     6    23 1
    25    11    24 1
    26    13    25 1
    27    13    26 1
    28    17    27 1
    29    18    28 1
    30    19    29 1
    31    20    30 1
@<TRIPOS>SUBSTRUCTURE
     1 4P8         1 TEMP              0 ****  ****    0 ROOT
