@<TRIPOS>MOLECULE
4P9
   30    32     1     0     0
SMALL
bcc


@<TRIPOS>ATOM
      1 CAN          0.0000     0.0000     0.0000 ca         1 4P9      -0.136000
      2 CAP          1.3810     0.0000     0.0000 ca         1 4P9      -0.066000
      3 CAR          2.0760     0.0000     1.1970 ca         1 4P9      -0.144000
      4 ClS          3.8120    -0.0000     1.1920 cl         1 4P9       0.047000
      5 CAQ          1.3890    -0.0000     2.3990 ca         1 4P9      -0.066000
      6 CAO          0.0080    -0.0000     2.4060 ca         1 4P9      -0.136000
      7 CAM         -0.6930     0.0060     1.2050 ca         1 4P9      -0.059000
      8 NAL         -2.0880     0.0070     1.2100 nu         1 4P9       0.176000
      9 NAK         -2.7930     0.0120    -0.0020 n2         1 4P9       0.006000
     10 CAJ         -4.0900     0.0130     0.0020 c2         1 4P9      -0.477000
     11 CAB         -4.8310     0.0190    -1.2710 c3         1 4P9      -0.139000
     12 CAC         -6.2280     0.0250    -1.2700 c2         1 4P9       0.000000
     13 CAD         -6.9190     0.0360    -2.4630 c2         1 4P9      -0.189000
     14 CAE         -6.2330     0.0420    -3.6690 c2         1 4P9       0.092000
     15 OAG         -6.9210     0.0530    -4.8420 oh         1 4P9      -0.245000
     16 CAF         -4.8420     0.0370    -3.6830 c2         1 4P9      -0.037000
     17 OAH         -4.1720     0.0420    -4.8680 oh         1 4P9      -0.247000
     18 CAA         -4.1370     0.0250    -2.4880 c2         1 4P9       0.084000
     19 OAI         -2.7770     0.0240    -2.4980 oh         1 4P9      -0.207000
     20 H1          -0.5430     0.0020    -0.9380 ha         1 4P9       0.124000
     21 H2           1.9220    -0.0050    -0.9390 ha         1 4P9       0.113000
     22 H3           1.9350    -0.0020     3.3340 ha         1 4P9       0.113000
     23 H4          -0.5290     0.0020     3.3470 ha         1 4P9       0.124000
     24 H5          -2.5850     0.0070     2.0780 hn         1 4P9       0.083000
     25 H7          -4.2380    -0.8590    -0.6230 DU         1 4P9       0.305000
     26 H9          -6.7690     0.0200    -0.3310 ha         1 4P9       0.125000
     27 H10         -8.0030     0.0400    -2.4580 ha         1 4P9       0.120000
     28 H11         -7.4420    -0.7310    -4.9080 ho         1 4P9       0.211000
     29 H12         -4.2720     0.8830    -5.2820 ho         1 4P9       0.216000
     30 H13         -2.4690    -0.5270    -3.1980 ho         1 4P9       0.209000
@<TRIPOS>BOND
     1     1     2 1   
     2     1     7 1   
     3     1    20 1   
     4     2     3 1   
     5     2    21 1   
     6     3     4 1   
     7     3     5 1   
     8     5     6 1   
     9     5    22 1   
    10     6     7 1   
    11     6    23 1   
    12     7     8 1   
    13     8     9 1   
    14     8    24 1   
    15     9    10 1   
    16    10    11 1   
    17    10    25 1   
    18    11    12 1   
    19    11    18 1   
    20    11    25 1   
    21    12    13 1   
    22    12    26 1   
    23    13    14 1   
    24    13    27 1   
    25    14    15 1   
    26    14    16 1   
    27    15    28 1   
    28    16    17 1   
    29    16    18 1   
    30    17    29 1   
    31    18    19 1   
    32    19    30 1   
@<TRIPOS>SUBSTRUCTURE
     1 4P9         1 TEMP              0 ****  ****    0 ROOT
