@<TRIPOS>MOLECULE
molecule
   30    31     1     0     0
SMALL
bcc


@<TRIPOS>ATOM
      1 CAN          0.0000     0.0000     0.0000 ca         1 4P9      -0.176000
      2 CAP          1.3810     0.0000     0.0000 ca         1 4P9      -0.087000
      3 CAR          2.0760     0.0000     1.1970 ca         1 4P9      -0.015600
      4 ClS          3.8120    -0.0000     1.1920 cl         1 4P9      -0.119400
      5 CAQ          1.3890    -0.0000     2.3990 ca         1 4P9      -0.087000
      6 CAO          0.0080    -0.0000     2.4060 ca         1 4P9      -0.176000
      7 CAM         -0.6930     0.0060     1.2050 ca         1 4P9       0.209600
      8 NAL         -2.0880     0.0070     1.2100 nu         1 4P9      -0.506700
      9 NAK         -2.7930     0.0120    -0.0020 n2         1 4P9      -0.351400
     10 CAJ         -4.0900     0.0130     0.0020 ce         1 4P9       0.367800
     11 CAB         -4.8310     0.0190    -1.2710 ca         1 4P9      -0.140900
     12 CAC         -6.2280     0.0250    -1.2700 ca         1 4P9      -0.084000
     13 CAD         -6.9190     0.0360    -2.4630 ca         1 4P9      -0.177000
     14 CAE         -6.2330     0.0420    -3.6690 ca         1 4P9       0.115100
     15 OAG         -6.9210     0.0530    -4.8420 oh         1 4P9      -0.513100
     16 CAF         -4.8420     0.0370    -3.6830 ca         1 4P9       0.020100
     17 OAH         -4.1720     0.0420    -4.8680 oh         1 4P9      -0.515100
     18 CAA         -4.1370     0.0250    -2.4880 ca         1 4P9       0.141100
     19 OAI         -2.7770     0.0240    -2.4980 oh         1 4P9      -0.481100
     20 H1          -0.5430     0.0020    -0.9380 ha         1 4P9       0.149000
     21 H2           1.9220    -0.0050    -0.9390 ha         1 4P9       0.143500
     22 H3           1.9350    -0.0020     3.3340 ha         1 4P9       0.143500
     23 H4          -0.5290     0.0020     3.3470 ha         1 4P9       0.149000
     24 H5          -2.5860     0.0040     2.0780 hn         1 4P9       0.425800
     25 H7          -4.6290     0.0100     0.9420 h4         1 4P9      -0.011200
     26 H9          -6.7690     0.0200    -0.3310 ha         1 4P9       0.140000
     27 H10         -8.0030     0.0400    -2.4580 ha         1 4P9       0.146000
     28 H11         -7.2770    -0.8050    -5.0050 ho         1 4P9       0.428000
     29 H12         -4.0610     0.9310    -5.1630 ho         1 4P9       0.431000
     30 H13         -2.4680    -0.6590    -3.0690 ho         1 4P9       0.431000
@<TRIPOS>BOND
     1    15    14 1
     2    13    14 ar
     3    13    12 ar
     4    14    16 ar
     5    12    11 ar
     6    16    17 1
     7    16    18 ar
     8    11    18 ar
     9    11    10 1
    10    18    19 1
    11    10     9 2
    12     9     8 1
    13     6     5 ar
    14     6     7 ar
    15     5     3 ar
    16     8     7 1
    17     3     4 1
    18     3     2 ar
    19     7     1 ar
    20     1     2 ar
    21     1    20 1
    22     2    21 1
    23     5    22 1
    24     6    23 1
    25     8    24 1
    26    10    25 1
    27    12    26 1
    28    13    27 1
    29    15    28 1
    30    17    29 1
    31    19    30 1
@<TRIPOS>SUBSTRUCTURE
     1 4P9         1 TEMP              0 ****  ****    0 ROOT
