@<TRIPOS>MOLECULE
4PA
   17    16     1     0     0
SMALL
bcc


@<TRIPOS>ATOM
      1 CAI         0.0620   -0.1030   -0.0100 c         1 4PA      0.632100
      2 OAD         1.2860   -0.2320   -0.0820 o         1 4PA     -0.546000
      3 CAC        -0.7970   -0.0500    1.2050 c3        1 4PA     -0.150100
      4 OAH        -0.6480    0.0100   -1.1730 os        1 4PA     -0.444900
      5 CAF         0.1070   -0.0330   -2.3960 c3        1 4PA      0.138400
      6 CAE        -0.9020    0.1070   -3.5200 c3        1 4PA     -0.086400
      7 CAA        -0.2070    0.0740   -4.8560 c3        1 4PA     -0.093100
      8 HAC1       -0.6940   -1.0140    1.7610 hc        1 4PA      0.075700
      9 HAC2       -1.8680    0.1090    0.9320 hc        1 4PA      0.075700
     10 HAC3       -0.4490    0.7870    1.8580 hc        1 4PA      0.075700
     11 HAF1        0.8490    0.8070   -2.3930 h1        1 4PA      0.051700
     12 HAF2        0.6570   -1.0090   -2.4470 h1        1 4PA      0.051700
     13 HAE1       -1.6520   -0.7230   -3.4510 hc        1 4PA      0.053200
     14 HAE2       -1.4630    1.0710   -3.3970 hc        1 4PA      0.053200
     15 HAA1        0.3400   -0.8900   -4.9940 hc        1 4PA      0.037700
     16 HAA2        0.5290    0.9100   -4.9400 hc        1 4PA      0.037700
     17 HAA3       -0.9550    0.1780   -5.6790 hc        1 4PA      0.037700
@<TRIPOS>BOND
     1    1    2 2   
     2    1    3 1   
     3    1    4 1   
     4    3    8 1   
     5    3    9 1   
     6    3   10 1   
     7    4    5 1   
     8    5    6 1   
     9    5   11 1   
    10    5   12 1   
    11    6    7 1   
    12    6   13 1   
    13    6   14 1   
    14    7   15 1   
    15    7   16 1   
    16    7   17 1   
@<TRIPOS>SUBSTRUCTURE
     1 4PA         1 TEMP              0 ****  ****    0 ROOT
