@<TRIPOS>MOLECULE
molecule
   17    16     1     0     0
SMALL
bcc


@<TRIPOS>ATOM
      1 CAI          0.0000     0.0000     0.0000 c          1 4PA       0.635100
      2 OAD          1.2080     0.0000     0.0000 o          1 4PA      -0.553000
      3 CAC         -0.7530     0.0000     1.3050 c3         1 4PA      -0.138100
      4 OAH         -0.6690     0.0000    -1.1630 os         1 4PA      -0.445900
      5 CAF          0.0560     0.0000    -2.4200 c3         1 4PA       0.156400
      6 CAE         -0.9370     0.0000    -3.5820 c3         1 4PA      -0.087400
      7 CAA         -0.1730     0.0000    -4.9080 c3         1 4PA      -0.090100
      8 HAC1        -0.0500     0.0420     2.1280 hc         1 4PA       0.069033
      9 HAC2        -1.4070     0.8630     1.3440 hc         1 4PA       0.069033
     10 HAC3        -1.3440    -0.9050     1.3810 hc         1 4PA       0.069033
     11 HAF1         0.6790     0.8840    -2.4770 h1         1 4PA       0.047700
     12 HAF2         0.6790    -0.8840    -2.4770 h1         1 4PA       0.047700
     13 HAE1        -1.5600     0.8840    -3.5250 hc         1 4PA       0.052700
     14 HAE2        -1.5600    -0.8840    -3.5250 hc         1 4PA       0.052700
     15 HAA1         0.4490    -0.8850    -4.9660 hc         1 4PA       0.038367
     16 HAA2        -0.8770     0.0010    -5.7310 hc         1 4PA       0.038367
     17 HAA3         0.4510     0.8840    -4.9650 hc         1 4PA       0.038367
@<TRIPOS>BOND
     1     1     2 2   
     2     1     3 1   
     3     1     4 1   
     4     3     8 1   
     5     3     9 1   
     6     3    10 1   
     7     4     5 1   
     8     5     6 1   
     9     5    11 1   
    10     5    12 1   
    11     6     7 1   
    12     6    13 1   
    13     6    14 1   
    14     7    15 1   
    15     7    16 1   
    16     7    17 1   
@<TRIPOS>SUBSTRUCTURE
     1 4PA         1 TEMP              0 ****  ****    0 ROOT
