@<TRIPOS>MOLECULE
molecule
   19    18     1     0     0
SMALL
bcc


@<TRIPOS>ATOM
      1 C1           0.0000     0.0000     0.0000 c          1 4PB       0.655100
      2 C2           1.5070     0.0000     0.0000 c3         1 4PB      -0.143400
      3 C3           2.0170     0.0000     1.4420 c3         1 4PB      -0.029400
      4 C4           3.5470    -0.0000     1.4430 c3         1 4PB      -0.240600
      5 N           -0.6740     0.0000    -1.1680 ns         1 4PB      -0.499400
      6 O1          -0.6070     0.0000     1.0500 o          1 4PB      -0.560100
      7 ON          -2.0900    -0.0000    -1.1670 oh         1 4PB      -0.390100
      8 P            4.1540     0.0000     3.1610 p5         1 4PB       1.044700
      9 O1P          3.7400    -1.3390     3.8620 o          1 4PB      -0.915167
     10 O2P          5.7160     0.1290     3.1630 o          1 4PB      -0.915167
     11 O3P          3.5300     1.2100     3.9360 o          1 4PB      -0.915167
     12 H21          1.8680    -0.8840    -0.5110 hc         1 4PB       0.039700
     13 H22          1.8680     0.8840    -0.5110 hc         1 4PB       0.039700
     14 H31          1.6560    -0.8840     1.9530 hc         1 4PB       0.067700
     15 H32          1.6560     0.8840     1.9530 hc         1 4PB       0.067700
     16 H41          3.9080     0.8840     0.9320 hc         1 4PB       0.012700
     17 H42          3.9080    -0.8840     0.9320 hc         1 4PB       0.012700
     18 HN          -0.1740     0.0180    -2.0340 hn         1 4PB       0.300500
     19 HON         -2.4040    -0.0460    -2.0550 ho         1 4PB       0.369000
@<TRIPOS>BOND
     1     1     2 1   
     2     1     5 1   
     3     1     6 2   
     4     2     3 1   
     5     2    12 1   
     6     2    13 1   
     7     3     4 1   
     8     3    14 1   
     9     3    15 1   
    10     4     8 1   
    11     4    16 1   
    12     4    17 1   
    13     5     7 1   
    14     5    18 1   
    15     7    19 1   
    16     8     9 1   
    17     8    10 1   
    18     8    11 1   
@<TRIPOS>SUBSTRUCTURE
     1 4PB         1 TEMP              0 ****  ****    0 ROOT
