@<TRIPOS>MOLECULE
molecule
   35    34     1     0     0
SMALL
bcc


@<TRIPOS>ATOM
      1 C1           0.0000     0.0000     0.0000 c3         1 4PF       0.127700
      2 O1           1.4290     0.0000     0.0000 os         1 4PF      -0.427600
      3 C2           2.0110     0.0000     1.3050 c3         1 4PF       0.141400
      4 C3           3.5350    -0.0000     1.1840 c3         1 4PF       0.136400
      5 O2           3.9660     1.2200     0.5780 os         1 4PF      -0.415600
      6 C4           5.3820     1.3220     0.4170 c3         1 4PF       0.147100
      7 C5           5.9910     1.9680     1.6630 c3         1 4PF      -0.117100
      8 C6           5.6960     2.1810    -0.8090 c3         1 4PF       0.143400
      9 O3           5.2440     3.5180    -0.5820 os         1 4PF      -0.442600
     10 C7           5.4900     4.4080    -1.6720 c3         1 4PF       0.113400
     11 C8           4.9690     5.8030    -1.3200 c3         1 4PF       0.106500
     12 C9           3.4910     5.7110    -0.9300 c3         1 4PF      -0.111100
     13 N1           5.7400     6.3440    -0.1950 nz         1 4PF      -0.807600
     14 H1          -0.3610    -0.8920     0.4970 h1         1 4PF       0.034033
     15 H2          -0.3610     0.0160    -1.0210 h1         1 4PF       0.034033
     16 H3          -0.3610     0.8770     0.5240 h1         1 4PF       0.034033
     17 H4           1.6910     0.8850     1.8430 h1         1 4PF       0.038200
     18 H5           1.6910    -0.8840     1.8430 h1         1 4PF       0.038200
     19 H6           3.8490    -0.8370     0.5720 h1         1 4PF       0.039700
     20 H7           3.9760    -0.0890     2.1700 h1         1 4PF       0.039700
     21 H8           5.8020     0.3320     0.2820 h1         1 4PF       0.063700
     22 H9           5.2960     2.6920     2.0710 hc         1 4PF       0.043367
     23 H10          6.1940     1.2050     2.4040 hc         1 4PF       0.043367
     24 H11          6.9150     2.4670     1.3960 hc         1 4PF       0.043367
     25 H12          6.7660     2.1870    -0.9820 h1         1 4PF       0.048700
     26 H13          5.1920     1.7720    -1.6760 h1         1 4PF       0.048700
     27 H14          6.5550     4.4580    -1.8640 h1         1 4PF       0.063200
     28 H15          4.9800     4.0450    -2.5560 h1         1 4PF       0.063200
     29 H16          5.0750     6.4550    -2.1780 hx         1 4PF       0.115700
     30 H17          2.9610     5.1150    -1.6620 hc         1 4PF       0.081367
     31 H18          3.4040     5.2460     0.0450 hc         1 4PF       0.081367
     32 H19          3.0640     6.7060    -0.8950 hc         1 4PF       0.081367
     33 H20          6.7180     6.2330    -0.3760 hn         1 4PF       0.456800
     34 H21          5.4980     5.8530     0.6430 hn         1 4PF       0.456800
     35 H131         5.5310     7.3170    -0.0830 hn         1 4PF       0.456800
@<TRIPOS>BOND
     1    12    11 1   
     2    13    11 1   
     3    11    10 1   
     4    10     9 1   
     5     9     8 1   
     6     8     6 1   
     7     7     6 1   
     8     6     5 1   
     9     5     4 1   
    10     4     3 1   
    11     3     2 1   
    12     2     1 1   
    13     1    14 1   
    14     1    15 1   
    15     1    16 1   
    16     3    17 1   
    17     3    18 1   
    18     4    19 1   
    19     4    20 1   
    20     6    21 1   
    21     7    22 1   
    22     7    23 1   
    23     7    24 1   
    24     8    25 1   
    25     8    26 1   
    26    10    27 1   
    27    10    28 1   
    28    11    29 1   
    29    12    30 1   
    30    12    31 1   
    31    12    32 1   
    32    13    33 1   
    33    13    34 1   
    34    35    13 1   
@<TRIPOS>SUBSTRUCTURE
     1 4PF         1 TEMP              0 ****  ****    0 ROOT
