@<TRIPOS>MOLECULE
4PG
   35    36     1     0     0
SMALL
bcc


@<TRIPOS>ATOM
      1 C1           0.0000     0.0000     0.0000 c2         1 4PG       0.249100
      2 C2           2.0760    -0.1270     1.2040 ca         1 4PG      -0.080400
      3 C3           1.6120    -0.9860     2.1910 ca         1 4PG      -0.139000
      4 C7           3.2400     0.6030     1.4140 ca         1 4PG      -0.139000
      5 C9           5.2400    -1.6320     4.7490 c          1 4PG       0.635700
      6 C10          6.1110    -1.9670     5.8870 ca         1 4PG      -0.206600
      7 C11          5.9940    -1.2670     7.0910 ca         1 4PG      -0.047000
      8 C12          6.8140    -1.5880     8.1530 ca         1 4PG      -0.110000
      9 C13          7.7500    -2.6000     8.0280 ca         1 4PG      -0.052000
     10 C14          7.8720    -3.2960     6.8390 ca         1 4PG      -0.110000
     11 C15          7.0550    -2.9920     5.7700 ca         1 4PG      -0.047000
     12 N1           1.3760     0.0000     0.0000 nu         1 4PG      -0.278600
     13 N2          -0.6870     0.0000     1.1910 nz         1 4PG       0.158400
     14 N3          -0.6510     0.0040    -1.1290 n2         1 4PG      -0.626100
     15 C4           2.3080    -1.1140     3.3770 ca         1 4PG      -0.034000
     16 C5           3.4660    -0.3860     3.5840 ca         1 4PG      -0.038300
     17 C6           3.9300     0.4710     2.6030 ca         1 4PG      -0.034000
     18 O1           5.3390    -2.2440     3.7080 o          1 4PG      -0.559100
     19 H3           0.7420    -1.6040     2.0050 ha         1 4PG       0.108000
     20 H7           3.6430     1.2800     0.6710 ha         1 4PG       0.108000
     21 H81          4.7280     0.4040     5.1040 hc         1 4PG       0.049200
     22 H82          3.5310    -0.7660     5.6770 hc         1 4PG       0.049200
     23 H11          5.2620    -0.4750     7.1900 ha         1 4PG       0.112500
     24 H12          6.7250    -1.0470     9.0870 ha         1 4PG       0.113500
     25 H13          8.3930    -2.8450     8.8650 ha         1 4PG       0.110000
     26 H14          8.6060    -4.0880     6.7500 ha         1 4PG       0.113500
     27 H15          7.1520    -3.5380     4.8400 ha         1 4PG       0.112500
     28 HN1          1.8770     0.0720    -0.8640 hn         1 4PG       0.329800
     29 HN21        -1.5680     0.4580     1.0680 hn         1 4PG       0.233800
     30 HN22        -0.1540     0.4850     1.8850 hn         1 4PG       0.233800
     31 HN3         -0.1500     0.0060    -1.9950 hn         1 4PG       0.377400
     32 H4           1.9450    -1.7830     4.1480 ha         1 4PG       0.124500
     33 H6           4.7640     1.1410     2.7760 ha         1 4PG       0.124500
     34 C8           4.2230    -0.5270     4.8780 c3         1 4PG      -0.078100
     35 H23         -0.8310    -0.9430     1.4940 hn         1 4PG       0.233800
@<TRIPOS>BOND
     1     1    12 1   
     2     1    13 1   
     3     1    14 2   
     4     2     3 ar  
     5     2     4 ar  
     6     2    12 1   
     7     3    15 ar  
     8     3    19 1   
     9     4    17 ar  
    10     4    20 1   
    11     5     6 1   
    12     5    18 2   
    13     5    34 1   
    14     6     7 ar  
    15     6    11 ar  
    16     7     8 ar  
    17     7    23 1   
    18     8     9 ar  
    19     8    24 1   
    20     9    10 ar  
    21     9    25 1   
    22    10    11 ar  
    23    10    26 1   
    24    11    27 1   
    25    12    28 1   
    26    13    29 1   
    27    13    30 1   
    28    13    35 1   
    29    14    31 1   
    30    15    16 ar  
    31    15    32 1   
    32    16    17 ar  
    33    16    34 1   
    34    17    33 1   
    35    21    34 1   
    36    22    34 1   
@<TRIPOS>SUBSTRUCTURE
     1 4PG         1 TEMP              0 ****  ****    0 ROOT
