@<TRIPOS>MOLECULE
molecule
   35    36     1     0     0
SMALL
bcc


@<TRIPOS>ATOM
      1 C1           0.0000     0.0000     0.0000 c2         1 4PG       0.700100
      2 C2           2.0760    -0.1270     1.2040 ca         1 4PG       0.088600
      3 C3           1.6120    -0.9860     2.1910 ca         1 4PG      -0.178500
      4 C7           3.2400     0.6030     1.4140 ca         1 4PG      -0.178500
      5 C9           5.2400    -1.6320     4.7490 c          1 4PG       0.583700
      6 C10          6.1110    -1.9670     5.8870 ca         1 4PG      -0.191600
      7 C11          5.9940    -1.2670     7.0910 ca         1 4PG      -0.077500
      8 C12          6.8140    -1.5880     8.1530 ca         1 4PG      -0.136500
      9 C13          7.7500    -2.6000     8.0280 ca         1 4PG      -0.085000
     10 C14          7.8720    -3.2960     6.8390 ca         1 4PG      -0.136500
     11 C15          7.0550    -2.9920     5.7700 ca         1 4PG      -0.077500
     12 N1           1.3760     0.0000     0.0000 nu         1 4PG      -0.705600
     13 N2          -0.6870     0.0000     1.1910 nz         1 4PG      -0.809600
     14 N3          -0.6510     0.0040    -1.1290 n2         1 4PG      -0.781100
     15 C4           2.3080    -1.1140     3.3770 ca         1 4PG      -0.071000
     16 C5           3.4660    -0.3860     3.5840 ca         1 4PG      -0.038300
     17 C6           3.9300     0.4710     2.6030 ca         1 4PG      -0.071000
     18 O1           5.3390    -2.2440     3.7080 o          1 4PG      -0.522100
     19 H3           0.7460    -1.6090     2.0030 ha         1 4PG       0.134500
     20 H7           3.7130     1.2900     0.7230 ha         1 4PG       0.134500
     21 H81          3.5310    -0.7660     5.6770 hc         1 4PG       0.082700
     22 H82          4.7280     0.4040     5.1040 hc         1 4PG       0.082700
     23 H11          5.2620    -0.4750     7.1900 ha         1 4PG       0.140500
     24 H12          6.7250    -1.0470     9.0870 ha         1 4PG       0.143500
     25 H13          8.3930    -2.8450     8.8650 ha         1 4PG       0.143000
     26 H14          8.6060    -4.0880     6.7500 ha         1 4PG       0.143500
     27 H15          7.1520    -3.5380     4.8400 ha         1 4PG       0.140500
     28 HN1          1.8760     0.0480    -0.8660 hn         1 4PG       0.516800
     29 HN21        -0.8090    -0.9420     1.5060 hn         1 4PG       0.470467
     30 HN22        -0.1710     0.5170     1.8750 hn         1 4PG       0.470467
     31 HN3         -1.6520     0.0060    -1.1300 hn         1 4PG       0.441400
     32 H4           1.9420    -1.7800     4.1490 ha         1 4PG       0.159000
     33 H6           4.7470     1.1830     2.6290 ha         1 4PG       0.159000
     34 C8           4.2230    -0.5270     4.8780 c3         1 4PG      -0.143100
     35 H23         -1.5880     0.4140     1.0560 hn         1 4PG       0.470467
@<TRIPOS>BOND
     1    13     1 1
     2     4    17 ar
     3     4     2 ar
     4     1    14 2
     5     1    12 1
     6    12     2 1
     7    18     5 2
     8    17    16 ar
     9     2     3 ar
    10     5    34 1
    11     5     6 1
    12    16    34 1
    13    16    15 ar
    14     3    15 ar
    15     7     6 ar
    16     7     8 ar
    17     6    11 ar
    18     8     9 ar
    19    11    10 ar
    20     9    10 ar
    21     3    19 1
    22     4    20 1
    23    34    21 1
    24    34    22 1
    25     7    23 1
    26     8    24 1
    27     9    25 1
    28    10    26 1
    29    11    27 1
    30    12    28 1
    31    13    29 1
    32    13    30 1
    33    14    31 1
    34    15    32 1
    35    17    33 1
    36    35    13 1
@<TRIPOS>SUBSTRUCTURE
     1 4PG         1 TEMP              0 ****  ****    0 ROOT
