@<TRIPOS>MOLECULE
4PI
   45    47     1     0     0
SMALL
bcc


@<TRIPOS>ATOM
      1 C1           0.0000     0.0000     0.0000 ca         1 4PI      -0.075300
      2 C2           1.3950     0.0000     0.0000 ca         1 4PI      -0.108000
      3 C3           2.0930     0.0000     1.2080 ca         1 4PI      -0.061500
      4 C7           3.1790     1.3100     5.5020 c3         1 4PI       0.054500
      5 C8           4.4230     2.1840     5.3590 c3         1 4PI      -0.040400
      6 C9           4.0700     3.5770     4.8140 c3         1 4PI      -0.045700
      7 C10          3.2650     3.4540     3.5110 c3         1 4PI      -0.040400
      8 C11          2.0450     2.5560     3.7020 c3         1 4PI       0.054500
      9 C21          5.0240     5.8830     4.5730 ca         1 4PI      -0.089300
     10 C22          4.7140     6.4990     3.3680 ca         1 4PI      -0.099500
     11 C24          4.4570     8.6020     4.5290 ca         1 4PI      -0.105000
     12 C27         -0.7450    -0.0000    -1.2920 c3         1 4PI       0.060200
     13 N12          2.4460     1.2470     4.2360 n          1 4PI      -0.187800
     14 C23          4.4300     7.8640     3.3460 ca         1 4PI      -0.098500
     15 C25          4.7700     7.9740     5.7350 ca         1 4PI      -0.098500
     16 C26          5.0540     6.6080     5.7570 ca         1 4PI      -0.099500
     17 O32          2.4320    -1.0670     4.2100 o          1 4PI      -0.620100
     18 C4           1.3920    -0.0010     2.4120 ca         1 4PI      -0.157600
     19 C5          -0.0000    -0.0000     2.4160 ca         1 4PI      -0.061500
     20 C6          -0.6970    -0.0010     1.2080 ca         1 4PI      -0.108000
     21 H2           1.9370     0.0000    -0.9380 ha         1 4PI       0.109000
     22 H3           3.1760    -0.0000     1.2100 ha         1 4PI       0.109000
     23 H71          2.5350     1.7300     6.2650 h1         1 4PI       0.026200
     24 H72          3.4780     0.3100     5.7900 h1         1 4PI       0.026200
     25 H81          5.1160     1.7040     4.6790 hc         1 4PI       0.022950
     26 H82          4.8910     2.2930     6.3300 hc         1 4PI       0.022950
     27 H9           3.4490     4.0780     5.5470 hc         1 4PI       0.029700
     28 H101         2.9350     4.4390     3.2040 hc         1 4PI       0.022950
     29 H102         3.9000     3.0300     2.7420 hc         1 4PI       0.022950
     30 H111         1.5530     2.4160     2.7470 h1         1 4PI       0.026200
     31 H112         1.3610     3.0290     4.3960 h1         1 4PI       0.026200
     32 H22          4.6940     5.9230     2.4510 ha         1 4PI       0.107500
     33 H24          4.2370     9.6630     4.5120 ha         1 4PI       0.103000
     34 H271        -0.0740     0.2780    -2.0950 hc         1 4PI       0.010033
     35 H272        -1.5600     0.7110    -1.2390 hc         1 4PI       0.010033
     36 H273        -1.1420    -0.9910    -1.4800 hc         1 4PI       0.010033
     37 H23          4.1870     8.3520     2.4090 ha         1 4PI       0.102000
     38 H25          4.7910     8.5460     6.6540 ha         1 4PI       0.102000
     39 H26          5.2970     6.1170     6.6920 ha         1 4PI       0.107500
     40 H5          -0.5410    -0.0010     3.3550 ha         1 4PI       0.109000
     41 H6          -1.7800    -0.0000     1.2070 ha         1 4PI       0.109000
     42 C31          2.1220    -0.0020     3.6750 c          1 4PI       0.638700
     43 C37          5.3300     4.4120     4.5970 c3         1 4PI       0.031900
     44 H371         6.0300     4.2100     5.3990 hc         1 4PI       0.021200
     45 H372         5.7830     4.1300     3.6540 hc         1 4PI       0.021200
@<TRIPOS>BOND
     1     1     2 ar  
     2     1    12 1   
     3     1    20 ar  
     4     2     3 ar  
     5     2    21 1   
     6     3    18 ar  
     7     3    22 1   
     8     4     5 1   
     9     4    13 1   
    10     4    23 1   
    11     4    24 1   
    12     5     6 1   
    13     5    25 1   
    14     5    26 1   
    15     6     7 1   
    16     6    27 1   
    17     6    43 1   
    18     7     8 1   
    19     7    28 1   
    20     7    29 1   
    21     8    13 1   
    22     8    30 1   
    23     8    31 1   
    24     9    10 ar  
    25     9    16 ar  
    26     9    43 1   
    27    10    14 ar  
    28    10    32 1   
    29    11    14 ar  
    30    11    15 ar  
    31    11    33 1   
    32    12    34 1   
    33    12    35 1   
    34    12    36 1   
    35    13    42 1   
    36    14    37 1   
    37    15    16 ar  
    38    15    38 1   
    39    16    39 1   
    40    17    42 2   
    41    18    19 ar  
    42    18    42 1   
    43    19    20 ar  
    44    19    40 1   
    45    20    41 1   
    46    43    44 1   
    47    43    45 1   
@<TRIPOS>SUBSTRUCTURE
     1 4PI         1 TEMP              0 ****  ****    0 ROOT
