@<TRIPOS>MOLECULE
4PL
   19    20     1     0     0
SMALL
bcc


@<TRIPOS>ATOM
      1 CAA        -0.0880   -0.0280    0.0470 c3        1 4PL     -0.161400
      2 OAC         0.1930    0.2410    2.9370 oh        1 4PL     -0.459100
      3 CAD         3.5590   -0.3460    0.5850 ca        1 4PL      0.381200
      4 CAE         4.8930   -0.2480    2.8600 c3        1 4PL      0.170700
      5 NAF         2.3500   -0.2850   -0.0220 nb        1 4PL     -0.615000
      6 OAG         4.3770   -0.0570    4.2030 os        1 4PL     -0.416900
      7 CAH         2.9870    0.0820    4.1670 c         1 4PL      0.742200
      8 CAI         1.2450   -0.0950    0.7210 ca        1 4PL      0.343600
      9 CAJ         3.6960   -0.2180    1.9620 ca        1 4PL     -0.184600
     10 CAK         1.2930    0.0480    2.1540 ca        1 4PL      0.090800
     11 CAL         2.5400   -0.0170    2.7640 ca        1 4PL     -0.176600
     12 HAA        -0.5640    0.9640    0.2540 hc        1 4PL      0.061033
     13 HAAA       -0.0040   -0.1510   -1.0610 hc        1 4PL      0.061033
     14 HAAB       -0.7480   -0.8420    0.4390 hc        1 4PL      0.061033
     15 HOAC       -0.5950    0.2630    2.3710 ho        1 4PL      0.432000
     16 HAD         4.4220   -0.5040   -0.0850 h4        1 4PL      0.037100
     17 HAE         5.6070    0.5910    2.6630 h1        1 4PL      0.083700
     18 HAEA        5.4200   -1.2350    2.8510 h1        1 4PL      0.083700
     19 OAB         2.4370    0.2500    5.2430 o         1 4PL     -0.533500
@<TRIPOS>BOND
     1    1    8 1   
     2    1   12 1   
     3    1   13 1   
     4    1   14 1   
     5    2   10 1   
     6    2   15 1   
     7    3    5 ar  
     8    3    9 ar  
     9    3   16 1   
    10    4    6 1   
    11    4    9 1   
    12    4   17 1   
    13    4   18 1   
    14    5    8 ar  
    15    6    7 1   
    16    7   11 1   
    17    7   19 2   
    18    8   10 ar  
    19    9   11 ar  
    20   10   11 ar  
@<TRIPOS>SUBSTRUCTURE
     1 4PL         1 TEMP              0 ****  ****    0 ROOT
