@<TRIPOS>MOLECULE
molecule
   19    20     1     0     0
SMALL
bcc


@<TRIPOS>ATOM
      1 CAA          0.0000     0.0000     0.0000 c3         1 4PL      -0.137400
      2 OAC          0.2220     0.0060     2.8210 oh         1 4PL      -0.499100
      3 CAD          3.6350     0.0000     0.5640 ca         1 4PL       0.435200
      4 CAE          4.9370     0.0040     2.8780 c3         1 4PL       0.182700
      5 NAF          2.4420     0.0000     0.0000 nb         1 4PL      -0.654000
      6 OAG          4.3820     0.0080     4.2220 os         1 4PL      -0.377900
      7 CAH          3.0400     0.0080     4.1430 c          1 4PL       0.746200
      8 CAI          1.3310     0.0010     0.7070 ca         1 4PL       0.406600
      9 CAJ          3.7640     0.0030     1.9320 ca         1 4PL      -0.235600
     10 CAK          1.3680     0.0040     2.0970 ca         1 4PL       0.067800
     11 CAL          2.6160     0.0050     2.7330 ca         1 4PL      -0.198600
     12 HAA         -0.5910     0.8410     0.3430 hc         1 4PL       0.060033
     13 HAAA         0.1580     0.0820    -1.0690 hc         1 4PL       0.060033
     14 HAAB        -0.5240    -0.9230     0.2180 hc         1 4PL       0.060033
     15 HOAC         0.0390    -0.8680     3.1240 ho         1 4PL       0.435000
     16 HAD          4.5220    -0.0010    -0.0580 h4         1 4PL       0.031100
     17 HAE          5.5180    -0.8990     2.7320 h1         1 4PL       0.082700
     18 HAEA         5.5190     0.9060     2.7280 h1         1 4PL       0.082700
     19 OAB          2.2860     0.0100     5.0940 o          1 4PL      -0.548500
@<TRIPOS>BOND
     1     1     8 1
     2    19     7 2
     3     2    10 1
     4     3     5 ar
     5     3     9 ar
     6     4     6 1
     7     4     9 1
     8     5     8 ar
     9     6     7 1
    10     7    11 1
    11     8    10 ar
    12     9    11 ar
    13    10    11 ar
    14     1    12 1
    15     1    13 1
    16     1    14 1
    17     2    15 1
    18     3    16 1
    19     4    17 1
    20     4    18 1
@<TRIPOS>SUBSTRUCTURE
     1 4PL         1 TEMP              0 ****  ****    0 ROOT
