@<TRIPOS>MOLECULE
molecule
   32    33     1     0     0
SMALL
bcc


@<TRIPOS>ATOM
      1 C8           0.0000     0.0000     0.0000 c3         1 4PN       0.134300
      2 C9           1.5300     0.0000     0.0000 c3         1 4PN      -0.077900
      3 C10          2.0340     0.0000     1.4470 c3         1 4PN      -0.083400
      4 C11          1.4230     1.1920     2.1860 c3         1 4PN      -0.077900
      5 C12         -0.1010     1.1300     2.0710 c3         1 4PN       0.134300
      6 N7          -0.4970     1.2090     0.6620 n3         1 4PN      -0.665600
      7 C4          -1.9630     1.1360     0.6310 c3         1 4PN       0.144500
      8 C5          -2.5540     2.3750     1.3090 c3         1 4PN      -0.073400
      9 C6          -4.0770     2.3470     1.1710 c3         1 4PN       0.147800
     10 N1          -4.4480     2.3780    -0.2460 n7         1 4PN      -0.798200
     11 C2          -3.9720     1.1290    -0.8490 c3         1 4PN       0.147800
     12 C3          -2.4430     1.0890    -0.8230 c3         1 4PN      -0.073400
     13 H81         -0.3580    -0.8730     0.5320 h1         1 4PN       0.036450
     14 H82         -0.3580    -0.0220    -1.0220 h1         1 4PN       0.036450
     15 H91          1.8910     0.8860    -0.5080 hc         1 4PN       0.048200
     16 H92          1.8910    -0.8860    -0.5080 hc         1 4PN       0.048200
     17 H101         1.7330    -0.9200     1.9340 hc         1 4PN       0.039700
     18 H102         3.1140     0.0850     1.4540 hc         1 4PN       0.039700
     19 H111         1.7080     1.1530     3.2310 hc         1 4PN       0.048200
     20 H112         1.7810     2.1130     1.7430 hc         1 4PN       0.048200
     21 H121        -0.4540     0.1960     2.4910 h1         1 4PN       0.036450
     22 H122        -0.5360     1.9610     2.6130 h1         1 4PN       0.036450
     23 H4          -2.2980     0.2460     1.1500 h1         1 4PN       0.023700
     24 H51         -2.2870     2.3740     2.3590 hc         1 4PN       0.057450
     25 H52         -2.1650     3.2670     0.8330 hc         1 4PN       0.057450
     26 H61         -4.4990     3.2110     1.6710 h1         1 4PN       0.030200
     27 H62         -4.4620     1.4410     1.6230 h1         1 4PN       0.030200
     28 H1          -5.4440     2.4310    -0.3290 hn         1 4PN       0.349800
     29 H21         -4.3630     0.2890    -0.2870 h1         1 4PN       0.030200
     30 H22         -4.3150     1.0720    -1.8750 h1         1 4PN       0.030200
     31 H31         -2.0510     1.9440    -1.3600 hc         1 4PN       0.057450
     32 H32         -2.0990     0.1730    -1.2870 hc         1 4PN       0.057450
@<TRIPOS>BOND
     1     1     2 1
     2     1     6 1
     3     1    13 1
     4     1    14 1
     5     2     3 1
     6     2    15 1
     7     2    16 1
     8     3     4 1
     9     3    17 1
    10     3    18 1
    11     4     5 1
    12     4    19 1
    13     4    20 1
    14     5     6 1
    15     5    21 1
    16     5    22 1
    17     6     7 1
    18     7     8 1
    19     7    12 1
    20     7    23 1
    21     8     9 1
    22     8    24 1
    23     8    25 1
    24     9    10 1
    25     9    26 1
    26     9    27 1
    27    10    11 1
    28    10    28 1
    29    11    12 1
    30    11    29 1
    31    11    30 1
    32    12    31 1
    33    12    32 1
@<TRIPOS>SUBSTRUCTURE
     1 4PN         1 TEMP              0 ****  ****    0 ROOT
