@<TRIPOS>MOLECULE
molecule
   28    28     1     0     0
SMALL
bcc


@<TRIPOS>ATOM
      1 C1           0.0000     0.0000     0.0000 c3         1 4PO      -0.090100
      2 N1           2.0180     0.0000     1.3820 nh         1 4PO       0.165600
      3 O1           2.7180     0.9140     1.7800 o          1 4PO      -0.243000
      4 C2           2.0400    -1.2500    -0.7200 c3         1 4PO      -0.090100
      5 N2           2.7520    -0.7740     6.2470 na         1 4PO       0.118600
      6 O2           3.1030    -0.7060     7.6170 o          1 4PO      -0.365000
      7 C3           2.0400     1.2490    -0.7210 c3         1 4PO      -0.090100
      8 C4           1.5290     0.0000     0.0000 c3         1 4PO      -0.012300
      9 C5           1.7040    -0.9730     2.1810 ce         1 4PO      -0.154200
     10 C6           2.0710    -0.9030     3.6050 ca         1 4PO      -0.168900
     11 C7           2.5890     0.2820     4.1560 ca         1 4PO      -0.145500
     12 C8           2.9180     0.3100     5.4760 ca         1 4PO      -0.099300
     13 C9           2.2660    -1.9200     5.7530 ca         1 4PO      -0.099300
     14 C10          1.9160    -2.0220     4.4430 ca         1 4PO      -0.145500
     15 H1          -0.3610     0.1910    -1.0030 hc         1 4PO       0.057589
     16 H1A         -0.3610     0.7730     0.6670 hc         1 4PO       0.057589
     17 H1B         -0.3610    -0.9640     0.3360 hc         1 4PO       0.057589
     18 H2           1.8070    -1.1790    -1.7760 hc         1 4PO       0.057589
     19 H2A          3.1130    -1.3270    -0.5920 hc         1 4PO       0.057589
     20 H2B          1.5630    -2.1280    -0.3030 hc         1 4PO       0.057589
     21 H3           1.6820     1.2480    -1.7430 hc         1 4PO       0.057589
     22 H3A          3.1230     1.2490    -0.7180 hc         1 4PO       0.057589
     23 H3B          1.6770     2.1340    -0.2120 hc         1 4PO       0.057589
     24 H5           2.6890    -1.2630     2.5250 h4         1 4PO       0.145800
     25 H7           2.7260     1.1610     3.5380 ha         1 4PO       0.187500
     26 H8           3.3180     1.2180     5.9090 h4         1 4PO       0.191000
     27 H9           2.1500    -2.7770     6.4060 h4         1 4PO       0.191000
     28 H10          1.5240    -2.9520     4.0500 ha         1 4PO       0.187500
@<TRIPOS>BOND
     1     1     8 1   
     2     2     3 1   
     3     2     8 1   
     4     2     9 2   
     5     4     8 1   
     6     5     6 1   
     7     5    12 1   
     8     5    13 2   
     9     7     8 1   
    10     9    10 1   
    11    10    11 ar  
    12    10    14 ar  
    13    11    12 ar  
    14    13    14 ar  
    15     1    15 1   
    16     1    16 1   
    17     1    17 1   
    18     4    18 1   
    19     4    19 1   
    20     4    20 1   
    21     7    21 1   
    22     7    22 1   
    23     7    23 1   
    24     9    24 1   
    25    11    25 1   
    26    12    26 1   
    27    13    27 1   
    28    14    28 1   
@<TRIPOS>SUBSTRUCTURE
     1 4PO         1 TEMP              0 ****  ****    0 ROOT
