@<TRIPOS>MOLECULE
4PO
   28    28     1     0     0
SMALL
bcc


@<TRIPOS>ATOM
      1 C1           0.0000     0.0000     0.0000 c3         1 4PO       0.009233
      2 N1           2.0180     0.0000     1.3820 nh         1 4PO       0.840600
      3 O1           2.7180     0.9140     1.7800 o          1 4PO      -0.479000
      4 C2           2.0400    -1.2500    -0.7200 c3         1 4PO       0.009233
      5 N2           2.7520    -0.7740     6.2470 na         1 4PO       0.777600
      6 O2           3.1030    -0.7060     7.6170 o          1 4PO      -0.539000
      7 C3           2.0400     1.2490    -0.7210 c3         1 4PO       0.009233
      8 C4           1.5290     0.0000     0.0000 c3         1 4PO      -0.264300
      9 C5           1.7040    -0.9730     2.1810 ce         1 4PO      -0.263200
     10 C6           2.0710    -0.9030     3.6050 ca         1 4PO      -0.116900
     11 C7           2.5890     0.2820     4.1560 ca         1 4PO      -0.062500
     12 C8           2.9180     0.3100     5.4760 ca         1 4PO      -0.353800
     13 C9           2.2660    -1.9200     5.7530 ca         1 4PO      -0.353800
     14 C10          1.9160    -2.0220     4.4430 ca         1 4PO      -0.062500
     15 H1          -0.3610     0.7280     0.7160 hc         1 4PO       0.021922
     16 H1A         -0.3610    -0.9840     0.2730 hc         1 4PO       0.021922
     17 H1B         -0.3610     0.2560    -0.9890 hc         1 4PO       0.021922
     18 H2           1.8990    -1.1340    -1.7880 hc         1 4PO       0.021922
     19 H2A          3.0940    -1.3840    -0.5080 hc         1 4PO       0.021922
     20 H2B          1.4900    -2.1160    -0.3750 hc         1 4PO       0.021922
     21 H3           1.6780     2.1340    -0.2110 hc         1 4PO       0.021922
     22 H3A          3.1230     1.2490    -0.7200 hc         1 4PO       0.021922
     23 H3B          1.6810     1.2480    -1.7430 hc         1 4PO       0.021922
     24 H5           1.0810    -1.7850     1.8250 h4         1 4PO       0.025800
     25 H7           2.7260     1.1610     3.5380 ha         1 4PO       0.151000
     26 H8           3.3180     1.2180     5.9090 h4         1 4PO       0.162000
     27 H9           2.1500    -2.7770     6.4060 h4         1 4PO       0.162000
     28 H10          1.5240    -2.9520     4.0500 ha         1 4PO       0.151000
@<TRIPOS>BOND
     1     1     8 1   
     2     1    15 1   
     3     1    16 1   
     4     1    17 1   
     5     2     3 1   
     6     2     8 1   
     7     2     9 2   
     8     4     8 1   
     9     4    18 1   
    10     4    19 1   
    11     4    20 1   
    12     5     6 1   
    13     5    12 1   
    14     5    13 2   
    15     7     8 1   
    16     7    21 1   
    17     7    22 1   
    18     7    23 1   
    19     9    10 1   
    20     9    24 1   
    21    10    11 ar  
    22    10    14 ar  
    23    11    12 ar  
    24    11    25 1   
    25    12    26 1   
    26    13    14 ar  
    27    13    27 1   
    28    14    28 1   
@<TRIPOS>SUBSTRUCTURE
     1 4PO         1 TEMP              0 ****  ****    0 ROOT
