@<TRIPOS>MOLECULE
4PP
   53    55     1     0     0
SMALL
bcc


@<TRIPOS>ATOM
      1 C1C          0.0000     0.0000     0.0000 c          1 4PP       0.983600
      2 O2          -0.6700     1.0060     0.5830 o          1 4PP      -0.874800
      3 O3          -0.6040    -0.9040    -0.5240 o          1 4PP      -0.874800
      4 N1P          2.5270     3.0930     8.2490 nb         1 4PP      -0.662000
      5 C2P          1.7670     3.9730     7.6270 ca         1 4PP       0.448700
      6 C3P          1.4110     3.7930     6.3070 ca         1 4PP      -0.326800
      7 C4P          1.8660     2.6610     5.6320 ca         1 4PP       0.098600
      8 C5P          2.6610     1.7520     6.3260 ca         1 4PP      -0.326800
      9 C6P          2.9780     2.0090     7.6440 ca         1 4PP       0.448700
     10 N1           1.5290     2.4420     4.2990 nu         1 4PP      -0.390600
     11 C1           1.5070     0.0000     0.0000 c3         1 4PP      -0.122400
     12 C2           2.0170     0.0000     1.4420 c3         1 4PP       0.017600
     13 C3           1.5080     1.2470     2.1650 c3         1 4PP      -0.096400
     14 C4           2.0170     1.2470     3.6070 c3         1 4PP       0.155800
     15 N1A          7.4030    -4.6740    -4.3580 n2         1 4PP      -0.475100
     16 N2A          7.9230    -3.6190    -6.3580 nz         1 4PP       0.119400
     17 C1A          7.1370    -3.7490    -5.2350 ce         1 4PP       0.244800
     18 C1D          2.9240    -3.5000    -2.0100 ca         1 4PP      -0.110000
     19 C2D          2.1310    -3.6170    -0.8880 ca         1 4PP      -0.110000
     20 C3D          1.6740    -2.4840    -0.2390 ca         1 4PP      -0.022000
     21 C4D          2.0090    -1.2290    -0.7110 ca         1 4PP      -0.005300
     22 C5D          2.8070    -1.1000    -1.8300 ca         1 4PP      -0.087000
     23 C6D          3.2650    -2.2370    -2.4900 cp         1 4PP      -0.117000
     24 C1B          4.6350    -0.9930    -5.7660 ca         1 4PP      -0.071000
     25 C2B          3.8430    -1.1180    -4.6420 ca         1 4PP      -0.040000
     26 C3B          4.1180    -2.1060    -3.6980 cp         1 4PP       0.041000
     27 C4B          5.1900    -2.9690    -3.8920 ca         1 4PP      -0.027000
     28 C5B          5.9890    -2.8370    -5.0240 ca         1 4PP      -0.206900
     29 C6B          5.7030    -1.8440    -5.9620 ca         1 4PP      -0.143000
     30 H5P          3.0340     0.8610     5.8360 ha         1 4PP       0.120000
     31 H6P          3.5970     1.3090     8.1910 h4         1 4PP      -0.033400
     32 H1N          0.9530     3.1010     3.8140 hn         1 4PP       0.303800
     33 H1           1.8680     0.8850    -0.5100 hc         1 4PP       0.029700
     34 H21          3.1010     0.0000     1.4420 hc         1 4PP      -0.004800
     35 H22          1.6570    -0.8850     1.9520 hc         1 4PP      -0.004800
     36 H31          0.4250     1.2470     2.1650 hc         1 4PP       0.068200
     37 H32          1.8690     2.1320     1.6550 hc         1 4PP       0.068200
     38 H41          1.6570     0.3620     4.1170 h1         1 4PP       0.005200
     39 H42          3.1000     1.2470     3.6070 h1         1 4PP       0.005200
     40 HN1          8.1770    -5.2920    -4.4980 hn         1 4PP       0.328400
     41 HN21         8.6460    -4.3110    -6.3410 hn         1 4PP       0.223467
     42 HN22         8.3350    -2.7070    -6.3750 hn         1 4PP       0.223467
     43 H1D          3.2800    -4.3880    -2.5190 ha         1 4PP       0.088000
     44 H2D          1.8660    -4.5990    -0.5130 ha         1 4PP       0.100000
     45 H3D          1.0520    -2.5810     0.6420 ha         1 4PP       0.132000
     46 H5D          3.0690    -0.1160    -2.1990 ha         1 4PP       0.103000
     47 H1B          4.4170    -0.2240    -6.4980 ha         1 4PP       0.117000
     48 H2B          3.0050    -0.4470    -4.4940 ha         1 4PP       0.140000
     49 H4B          5.4520    -3.6890    -3.1250 ha         1 4PP       0.138000
     50 H6B          6.3210    -1.7410    -6.8460 ha         1 4PP       0.068000
     51 H3P          0.7880     4.5210     5.8020 ha         1 4PP       0.120000
     52 H2A3         7.3630    -3.7590    -7.1760 hn         1 4PP       0.223467
     53 H2P          1.4180     4.8490     8.1600 h4         1 4PP      -0.033400
@<TRIPOS>BOND
     1     1     2 1   
     2     1     3 1   
     3     1    11 1   
     4     4     5 ar  
     5     4     9 ar  
     6     5     6 ar  
     7     5    53 1   
     8     6     7 ar  
     9     6    51 1   
    10     7     8 ar  
    11     7    10 1   
    12     8     9 ar  
    13     8    30 1   
    14     9    31 1   
    15    10    14 1   
    16    10    32 1   
    17    11    12 1   
    18    11    21 1   
    19    11    33 1   
    20    12    13 1   
    21    12    34 1   
    22    12    35 1   
    23    13    14 1   
    24    13    36 1   
    25    13    37 1   
    26    14    38 1   
    27    14    39 1   
    28    15    17 2   
    29    15    40 1   
    30    16    17 1   
    31    16    41 1   
    32    16    42 1   
    33    16    52 1   
    34    17    28 1   
    35    18    19 ar  
    36    18    23 ar  
    37    18    43 1   
    38    19    20 ar  
    39    19    44 1   
    40    20    21 ar  
    41    20    45 1   
    42    21    22 ar  
    43    22    23 ar  
    44    22    46 1   
    45    23    26 1   
    46    24    25 ar  
    47    24    29 ar  
    48    24    47 1   
    49    25    26 ar  
    50    25    48 1   
    51    26    27 ar  
    52    27    28 ar  
    53    27    49 1   
    54    28    29 ar  
    55    29    50 1   
@<TRIPOS>SUBSTRUCTURE
     1 4PP         1 TEMP              0 ****  ****    0 ROOT
