@<TRIPOS>MOLECULE
4PR
   82    84     1     0     0
SMALL
bcc


@<TRIPOS>ATOM
      1 C1          0.5480   -0.2100   -0.8730 c3        1 4PR     -0.104100
      2 C2          1.8520    0.1190   -0.1920 c3        1 4PR     -0.074400
      3 C3          1.6460    0.3810    1.2890 c3        1 4PR     -0.103400
      4 C4          2.9570    0.7500    1.9500 c3        1 4PR     -0.116400
      5 C5          2.9220    0.5920    3.4760 c3        1 4PR      0.147500
      6 N1          1.8870    1.4870    4.0870 n4        1 4PR     -0.651800
      7 C6          1.4950    1.0910    5.4900 c         1 4PR      0.662100
      8 O1          2.2890    0.5700    6.2600 o         1 4PR     -0.457000
      9 O2          0.1800    1.2640    5.6280 os        1 4PR     -0.397900
     10 C7         -0.4400    1.7750    6.8520 c3        1 4PR      0.148100
     11 C8         -1.8390    2.1620    6.2840 c3        1 4PR      0.032000
     12 N2         -1.7440    3.5490    5.8230 n         1 4PR     -0.370800
     13 C9         -0.7550    4.2020    6.6920 c3        1 4PR      0.027000
     14 C10         0.1100    3.1120    7.4020 c3        1 4PR     -0.100000
     15 C11        -0.1560    3.1360    8.9010 c3        1 4PR     -0.101600
     16 C12         1.5770    3.3640    7.1530 c3        1 4PR     -0.101600
     17 C13        -1.3680    3.6220    4.4020 c         1 4PR      0.752100
     18 O3         -0.2240    3.2590    4.0030 o         1 4PR     -0.741100
     19 N3         -2.3200    4.1130    3.5410 n         1 4PR     -0.384100
     20 C14        -2.1170    4.1640    2.1640 cc        1 4PR     -0.264000
     21 C15        -2.5540    3.1480    1.1810 cc        1 4PR      0.327600
     22 C16        -3.3250    1.9330    1.4990 c3        1 4PR     -0.136400
     23 N4         -2.1650    3.5570   -0.0400 nd        1 4PR     -0.340300
     24 O4         -1.5440    4.7190    0.0590 os        1 4PR     -0.096100
     25 C17        -1.4940    5.1480    1.3970 cd        1 4PR      0.319000
     26 C18        -0.8750    6.4450    1.6590 c3        1 4PR     -0.153400
     27 C19         4.3240    0.8830    4.0880 c3        1 4PR      0.062100
     28 O5          4.5490    2.2600    3.8920 oh        1 4PR     -0.574800
     29 C20         5.4470    0.0980    3.4030 c         1 4PR      0.483100
     30 O6          6.4110    0.6390    2.8830 o         1 4PR     -0.368100
     31 N5          5.4080   -1.3920    3.4650 n4        1 4PR     -0.682800
     32 C21         6.2500   -2.0890    2.3820 c3        1 4PR      0.214800
     33 C22         5.6390   -1.8960    1.0060 c3        1 4PR     -0.134100
     34 C23         6.3910   -3.5250    2.7690 ca        1 4PR     -0.210300
     35 C24         5.3300   -4.4260    2.6020 ca        1 4PR     -0.101000
     36 C25         5.5010   -5.7690    2.9250 ca        1 4PR     -0.113500
     37 C26         6.7310   -6.2220    3.4120 ca        1 4PR     -0.063000
     38 C27         7.7880   -5.3260    3.5800 ca        1 4PR     -0.113500
     39 C28         7.6210   -3.9790    3.2640 ca        1 4PR     -0.101000
     40 H11        -0.1680    0.6430   -0.7950 hc        1 4PR      0.054700
     41 H12         0.7270   -0.4180   -1.9560 hc        1 4PR      0.054700
     42 H13         0.0760   -1.1130   -0.4150 hc        1 4PR      0.054700
     43 H21A        2.5730   -0.7310   -0.3250 hc        1 4PR      0.049700
     44 H22         2.3080    1.0250   -0.6710 hc        1 4PR      0.049700
     45 H31         1.2110   -0.5350    1.7700 hc        1 4PR      0.055200
     46 H32         0.9000    1.2130    1.4010 hc        1 4PR      0.055200
     47 H41         3.2470    1.8030    1.6810 hc        1 4PR      0.086200
     48 H42         3.7710    0.0760    1.5650 hc        1 4PR      0.086200
     49 H5          2.6270   -0.4650    3.7490 hx        1 4PR      0.095700
     50 HN1         1.0260    1.5050    3.4990 hn        1 4PR      0.507800
     51 H7         -0.4340    0.9420    7.5960 h1        1 4PR      0.113700
     52 H81        -2.1670    1.4630    5.4710 h1        1 4PR      0.106200
     53 H82        -2.5820    2.1280    7.1300 h1        1 4PR      0.106200
     54 H91        -0.1050    4.9140    6.1170 h1        1 4PR      0.090700
     55 H92        -1.3400    4.7880    7.4550 h1        1 4PR      0.090700
     56 H111        0.1080    4.1390    9.3160 hc        1 4PR      0.056700
     57 H112       -1.2350    2.9380    9.1120 hc        1 4PR      0.056700
     58 H113        0.4620    2.3640    9.4200 hc        1 4PR      0.056700
     59 H121        2.2030    2.5570    7.6070 hc        1 4PR      0.056700
     60 H122        1.7910    3.4400    6.0580 hc        1 4PR      0.056700
     61 H123        1.8720    4.3370    7.6230 hc        1 4PR      0.056700
     62 HN3        -3.2090    4.4150    3.8840 hn        1 4PR      0.362500
     63 H161       -3.3190    1.2030    0.6510 hc        1 4PR      0.063700
     64 H162       -4.3890    2.2140    1.7100 hc        1 4PR      0.063700
     65 H163       -2.9000    1.4380    2.4060 hc        1 4PR      0.063700
     66 H181       -0.2530    6.3950    2.5860 hc        1 4PR      0.080367
     67 H182       -1.6730    7.2200    1.8020 hc        1 4PR      0.080367
     68 H183       -0.2320    6.7610    0.7980 hc        1 4PR      0.080367
     69 H19         4.3350    0.6260    5.1910 h1        1 4PR      0.121700
     70 HO5         5.4240    2.4980    4.2420 ho        1 4PR      0.472000
     71 HN5         4.4410   -1.7210    3.3810 hn        1 4PR      0.461800
     72 H21         7.2610   -1.5730    2.4110 hx        1 4PR      0.127700
     73 H221        6.2580   -2.4810    0.2750 hc        1 4PR      0.082367
     74 H222        5.6680   -0.8210    0.7020 hc        1 4PR      0.082367
     75 H223        4.5900   -2.2750    0.9440 hc        1 4PR      0.082367
     76 H24         4.3670   -4.0850    2.1930 ha        1 4PR      0.137000
     77 H25         4.6700   -6.4800    2.7840 ha        1 4PR      0.169000
     78 H26         6.8670   -7.2890    3.6570 ha        1 4PR      0.172000
     79 H27         8.7610   -5.6840    3.9560 ha        1 4PR      0.169000
     80 H28         8.4670   -3.2840    3.3840 ha        1 4PR      0.137000
     81 H124        2.2300    2.4640    4.1170 hn        1 4PR      0.507800
     82 H52         5.7740   -1.6980    4.3790 hn        1 4PR      0.461800
@<TRIPOS>BOND
     1    1    2 1
     2    1   40 1
     3    1   41 1
     4    1   42 1
     5    2    3 1
     6    2   43 1
     7    2   44 1
     8    3    4 1
     9    3   45 1
    10    3   46 1
    11    4    5 1
    12    4   47 1
    13    4   48 1
    14    5    6 1
    15    5   27 1
    16    5   49 1
    17    6    7 1
    18    6   50 1
    19    6   81 1
    20    7    8 2
    21    7    9 1
    22    9   10 1
    23   10   11 1
    24   10   14 1
    25   10   51 1
    26   11   12 1
    27   11   52 1
    28   11   53 1
    29   12   13 1
    30   12   17 1
    31   13   14 1
    32   13   54 1
    33   13   55 1
    34   14   15 1
    35   14   16 1
    36   15   56 1
    37   15   57 1
    38   15   58 1
    39   16   59 1
    40   16   60 1
    41   16   61 1
    42   17   18 2
    43   17   19 1
    44   19   20 1
    45   19   62 1
    46   20   21 1
    47   20   25 2
    48   21   22 1
    49   21   23 2
    50   22   63 1
    51   22   64 1
    52   22   65 1
    53   23   24 1
    54   24   25 1
    55   25   26 1
    56   26   66 1
    57   26   67 1
    58   26   68 1
    59   27   28 1
    60   27   29 1
    61   27   69 1
    62   28   70 1
    63   29   30 2
    64   29   31 1
    65   31   32 1
    66   31   71 1
    67   31   82 1
    68   32   33 1
    69   32   34 1
    70   32   72 1
    71   33   73 1
    72   33   74 1
    73   33   75 1
    74   34   35 ar
    75   34   39 ar
    76   35   36 ar
    77   35   76 1
    78   36   37 ar
    79   36   77 1
    80   37   38 ar
    81   37   78 1
    82   38   39 ar
    83   38   79 1
    84   39   80 1
@<TRIPOS>SUBSTRUCTURE
     1 4PR         1 TEMP              0 ****  ****    0 ROOT
