@<TRIPOS>MOLECULE
molecule
   47    46     1     0     0
SMALL
bcc


@<TRIPOS>ATOM
      1 O19          0.0000     0.0000     0.0000 o          1 4PS      -0.871833
      2 P20          1.6100     0.0000     0.0000 p5         1 4PS       1.316900
      3 O21          2.1020     0.0000     1.3960 o          1 4PS      -0.871833
      4 O22          2.1460    -1.3150    -0.7590 o          1 4PS      -0.871833
      5 O23          2.1470     1.3150    -0.7590 os         1 4PS      -0.717800
      6 P24          2.3300     2.8560    -0.3320 p5         1 4PS       1.429800
      7 O25          1.1750     3.2800     0.4910 o          1 4PS      -0.857000
      8 O26          3.6850     3.0190     0.5210 o          1 4PS      -0.857000
      9 O27          2.4130     3.7730    -1.6530 os         1 4PS      -0.607200
     10 C28          2.4720     5.1990    -1.6070 c3         1 4PS       0.240400
     11 C29          2.5430     5.7530    -3.0310 c3         1 4PS      -0.067000
     12 C30          3.7960     5.2120    -3.7260 c3         1 4PS      -0.069600
     13 C31          1.3000     5.3190    -3.8100 c3         1 4PS      -0.069600
     14 C32          2.6060     7.2810    -2.9830 c3         1 4PS       0.087100
     15 O33          1.3800     7.7920    -2.4540 oh         1 4PS      -0.552800
     16 C34          3.7500     7.7080    -2.1010 c          1 4PS       0.639100
     17 O35          3.5280     8.2120    -1.0200 o          1 4PS      -0.585100
     18 N36          5.0210     7.5310    -2.5130 ns         1 4PS      -0.599900
     19 C37          6.1340     7.8500    -1.6130 c3         1 4PS       0.127000
     20 C38          7.4600     7.5610    -2.3200 c3         1 4PS      -0.177400
     21 C39          8.6040     7.8880    -1.3950 c          1 4PS       0.660100
     22 O40          8.3800     8.3110    -0.2810 o          1 4PS      -0.597100
     23 N41          9.8750     7.7110    -1.8070 ns         1 4PS      -0.597900
     24 C42         10.9870     8.0290    -0.9080 c3         1 4PS       0.131000
     25 C43         12.3130     7.7400    -1.6150 c3         1 4PS       0.004700
     26 S44         13.6900     8.1350    -0.5020 sh         1 4PS      -0.531900
     27 H28          3.3510     5.5070    -1.0550 h1         1 4PS       0.038200
     28 H28A         1.5850     5.5810    -1.1160 h1         1 4PS       0.038200
     29 H30          4.5960     5.1140    -3.0030 hc         1 4PS       0.031533
     30 H30A         4.0980     5.8970    -4.5090 hc         1 4PS       0.031533
     31 H30B         3.5790     4.2430    -4.1590 hc         1 4PS       0.031533
     32 H31          1.3480     4.2540    -4.0020 hc         1 4PS       0.031533
     33 H31A         0.4140     5.5420    -3.2290 hc         1 4PS       0.031533
     34 H31B         1.2590     5.8530    -4.7520 hc         1 4PS       0.031533
     35 H32          2.7570     7.6680    -3.9830 h1         1 4PS       0.007700
     36 HO33         1.2300     8.6590    -2.7930 ho         1 4PS       0.373000
     37 HN36         5.2060     7.2380    -3.4510 hn         1 4PS       0.304500
     38 H37          6.0900     8.8980    -1.3420 h1         1 4PS       0.072700
     39 H37A         6.0610     7.2430    -0.7190 h1         1 4PS       0.072700
     40 H38          7.5030     6.5130    -2.5910 hc         1 4PS       0.057700
     41 H38A         7.5330     8.1680    -3.2140 hc         1 4PS       0.057700
     42 HN41        10.0590     7.3620    -2.7270 hn         1 4PS       0.301500
     43 H42         10.9140     7.4210    -0.0150 h1         1 4PS       0.059700
     44 H42A        10.9440     9.0770    -0.6370 h1         1 4PS       0.059700
     45 H43         12.3570     6.6920    -1.8860 h1         1 4PS       0.039200
     46 H43A        12.3860     8.3470    -2.5090 h1         1 4PS       0.039200
     47 HS44        14.8410     7.9440    -1.1360 hs         1 4PS       0.156800
@<TRIPOS>BOND
     1     1     2 1
     2     3     2 1
     3     2     4 1
     4     2     5 1
     5     5     6 1
     6     7     6 1
     7     6     8 1
     8     6     9 1
     9     9    10 1
    10    10    11 1
    11    10    27 1
    12    10    28 1
    13    11    13 1
    14    11    14 1
    15    11    12 1
    16    12    29 1
    17    12    30 1
    18    12    31 1
    19    13    32 1
    20    13    33 1
    21    13    34 1
    22    15    14 1
    23    14    16 1
    24    14    35 1
    25    15    36 1
    26    16    17 2
    27    16    18 1
    28    18    19 1
    29    18    37 1
    30    19    20 1
    31    19    38 1
    32    19    39 1
    33    21    20 1
    34    20    40 1
    35    20    41 1
    36    23    21 1
    37    21    22 2
    38    24    23 1
    39    23    42 1
    40    25    24 1
    41    24    43 1
    42    24    44 1
    43    26    25 1
    44    25    45 1
    45    25    46 1
    46    26    47 1
@<TRIPOS>SUBSTRUCTURE
     1 4PS         1 TEMP              0 ****  ****    0 ROOT
