@<TRIPOS>MOLECULE
4PV
   42    45     1     0     0
SMALL
bcc


@<TRIPOS>ATOM
      1 C1           0.0000     0.0000     0.0000 c3         1 4PV       0.138800
      2 C2           1.5330     0.0000     0.0000 c3         1 4PV       0.150300
      3 C3           1.4510     1.0100     2.3120 c3         1 4PV       0.150300
      4 C11          4.2520    -3.5390     2.4040 ca         1 4PV      -0.262500
      5 C12          3.6710    -1.8480     4.0220 ca         1 4PV      -0.089200
      6 C13          4.0990    -1.6610     5.3260 ca         1 4PV      -0.130000
      7 C14          4.3310    -0.3830     5.8030 ca         1 4PV      -0.086000
      8 C15          4.1380     0.7130     4.9790 ca         1 4PV       0.075900
      9 C16          3.6990     0.5420     3.6790 ca         1 4PV      -0.103000
     10 C17          3.4490    -0.7420     3.1900 ca         1 4PV      -0.199500
     11 F1           4.3800     1.9580     5.4480 f          1 4PV      -0.125900
     12 C5           2.9260    -0.9210     1.8290 cc         1 4PV       0.357400
     13 N1           2.0000     0.0000     1.3940 nh         1 4PV      -0.459300
     14 C4          -0.0780     0.9710     2.2210 c3         1 4PV       0.138800
     15 N           -0.4860     1.1200     0.8180 n3         1 4PV      -0.546600
     16 C           -1.9440     1.2590     0.7050 c3         1 4PV       0.189100
     17 N3           3.4940    -3.1400     3.5180 na         1 4PV       0.179700
     18 C6           4.1520    -2.8550     1.1890 ca         1 4PV       0.401600
     19 N2           3.2480    -1.8520     1.0050 nd         1 4PV      -0.394000
     20 C10          5.1110    -4.6190     2.5210 ca         1 4PV      -0.095000
     21 C9           5.8940    -5.0070     1.4480 ca         1 4PV      -0.142000
     22 C8           5.8240    -4.3160     0.2510 ca         1 4PV       0.108900
     23 F            6.6020    -4.6870    -0.7880 f          1 4PV      -0.129900
     24 C7           4.9600    -3.2430     0.1180 ca         1 4PV      -0.197300
     25 H1          -0.3600    -0.9330     0.4160 h1         1 4PV       0.017200
     26 H2          -0.3600     0.1120    -1.0150 h1         1 4PV       0.017200
     27 H3           1.8960    -0.8870    -0.5050 h1         1 4PV       0.041950
     28 H4           1.8960     0.8870    -0.5050 h1         1 4PV       0.041950
     29 H5           1.7600     0.7860     3.3260 h1         1 4PV       0.041950
     30 H6           1.8070     1.9920     2.0260 h1         1 4PV       0.041950
     31 H7           4.2510    -2.5160     5.9740 ha         1 4PV       0.117000
     32 H8           4.6750    -0.2400     6.8200 ha         1 4PV       0.120000
     33 H9           3.5510     1.4040     3.0390 ha         1 4PV       0.139000
     34 H10         -0.4940     1.7830     2.8050 h1         1 4PV       0.017200
     35 H11         -0.4380     0.0230     2.6020 h1         1 4PV       0.017200
     36 H13         -2.4230     0.3620     1.0800 h1         1 4PV       0.001700
     37 H14         -2.2140     1.4050    -0.3340 h1         1 4PV       0.001700
     38 H15         -2.2720     2.1130     1.2860 h1         1 4PV       0.001700
     39 H16          3.6090    -3.8050     4.2560 hn         1 4PV       0.098700
     40 H17          5.1690    -5.1640     3.4560 ha         1 4PV       0.107000
     41 H18          6.5640    -5.8540     1.5440 ha         1 4PV       0.119000
     42 H19          4.9090    -2.7040    -0.8210 ha         1 4PV       0.130000
@<TRIPOS>BOND
     1     1     2 1   
     2     1    15 1   
     3     1    25 1   
     4     1    26 1   
     5     2    13 1   
     6     2    27 1   
     7     2    28 1   
     8     3    13 1   
     9     3    14 1   
    10     3    29 1   
    11     3    30 1   
    12     4    17 1   
    13     4    18 ar  
    14     4    20 ar  
    15     5     6 ar  
    16     5    10 ar  
    17     5    17 1   
    18     6     7 ar  
    19     6    31 1   
    20     7     8 ar  
    21     7    32 1   
    22     8     9 ar  
    23     8    11 1   
    24     9    10 ar  
    25     9    33 1   
    26    10    12 1   
    27    12    13 1   
    28    12    19 2   
    29    14    15 1   
    30    14    34 1   
    31    14    35 1   
    32    15    16 1   
    33    16    36 1   
    34    16    37 1   
    35    16    38 1   
    36    17    39 1   
    37    18    19 1   
    38    18    24 ar  
    39    20    21 ar  
    40    20    40 1   
    41    21    22 ar  
    42    21    41 1   
    43    22    23 1   
    44    22    24 ar  
    45    24    42 1   
@<TRIPOS>SUBSTRUCTURE
     1 4PV         1 TEMP              0 ****  ****    0 ROOT
