@<TRIPOS>MOLECULE
molecule
   42    45     1     0     0
SMALL
bcc


@<TRIPOS>ATOM
      1 C1           0.0000     0.0000     0.0000 c3         1 4PV       0.143800
      2 C2           1.5330     0.0000     0.0000 c3         1 4PV       0.230800
      3 C3           1.4510     1.0100     2.3120 c3         1 4PV       0.230800
      4 C11          4.2520    -3.5390     2.4040 ca         1 4PV      -0.150500
      5 C12          3.6710    -1.8480     4.0220 ca         1 4PV       0.022800
      6 C13          4.0990    -1.6610     5.3260 ca         1 4PV      -0.163000
      7 C14          4.3310    -0.3830     5.8030 ca         1 4PV      -0.120000
      8 C15          4.1380     0.7130     4.9790 ca         1 4PV       0.097900
      9 C16          3.6990     0.5420     3.6790 ca         1 4PV      -0.125000
     10 C17          3.4490    -0.7420     3.1900 ca         1 4PV      -0.214500
     11 F1           4.3800     1.9580     5.4480 f          1 4PV      -0.138900
     12 C5           2.9260    -0.9210     1.8290 cc         1 4PV       0.549400
     13 N1           2.0000     0.0000     1.3940 nh         1 4PV      -0.818300
     14 C4          -0.0780     0.9710     2.2210 c3         1 4PV       0.143800
     15 N           -0.4860     1.1200     0.8180 n3         1 4PV      -0.733600
     16 C           -1.9440     1.2590     0.7050 c3         1 4PV       0.152100
     17 N3           3.4940    -3.1400     3.5180 na         1 4PV      -0.173300
     18 C6           4.1520    -2.8550     1.1890 ca         1 4PV       0.448600
     19 N2           3.2480    -1.8520     1.0050 nd         1 4PV      -0.516000
     20 C10          5.1110    -4.6190     2.5210 ca         1 4PV      -0.130000
     21 C9           5.8940    -5.0070     1.4480 ca         1 4PV      -0.173000
     22 C8           5.8240    -4.3160     0.2510 ca         1 4PV       0.133900
     23 F            6.6020    -4.6870    -0.7880 f          1 4PV      -0.140900
     24 C7           4.9600    -3.2430     0.1180 ca         1 4PV      -0.224300
     25 H1          -0.3600    -0.9330     0.4160 h1         1 4PV       0.044450
     26 H2          -0.3600     0.1120    -1.0150 h1         1 4PV       0.044450
     27 H3           1.8960    -0.8870    -0.5050 h1         1 4PV       0.066450
     28 H4           1.8960     0.8870    -0.5050 h1         1 4PV       0.066450
     29 H5           1.7600     0.7860     3.3260 h1         1 4PV       0.066450
     30 H6           1.8070     1.9920     2.0260 h1         1 4PV       0.066450
     31 H7           4.2510    -2.5160     5.9740 ha         1 4PV       0.143000
     32 H8           4.6750    -0.2400     6.8200 ha         1 4PV       0.151000
     33 H9           3.5510     1.4040     3.0390 ha         1 4PV       0.161000
     34 H10         -0.4940     1.7830     2.8050 h1         1 4PV       0.044450
     35 H11         -0.4380     0.0230     2.6020 h1         1 4PV       0.044450
     36 H13         -2.4230     0.3620     1.0800 h1         1 4PV       0.033367
     37 H14         -2.2140     1.4050    -0.3340 h1         1 4PV       0.033367
     38 H15         -2.2720     2.1130     1.2860 h1         1 4PV       0.033367
     39 H16          3.6090    -3.8050     4.2560 hn         1 4PV       0.233700
     40 H17          5.1690    -5.1640     3.4560 ha         1 4PV       0.132000
     41 H18          6.5640    -5.8540     1.5440 ha         1 4PV       0.145000
     42 H19          4.9090    -2.7040    -0.8210 ha         1 4PV       0.159000
@<TRIPOS>BOND
     1    16    15 1   
     2    15     1 1   
     3    15    14 1   
     4     1     2 1   
     5    14     3 1   
     6     2    13 1   
     7     3    13 1   
     8    13    12 1   
     9    19    12 2   
    10    19    18 1   
    11    12    10 1   
    12    18    24 ar  
    13    18     4 ar  
    14    24    22 ar  
    15    10     9 ar  
    16    10     5 ar  
    17     9     8 ar  
    18     4    17 1   
    19     4    20 ar  
    20    17     5 1   
    21    22    23 1   
    22    22    21 ar  
    23     5     6 ar  
    24     8    11 1   
    25     8     7 ar  
    26    20    21 ar  
    27     6     7 ar  
    28     1    25 1   
    29     1    26 1   
    30     2    27 1   
    31     2    28 1   
    32     3    29 1   
    33     3    30 1   
    34     6    31 1   
    35     7    32 1   
    36     9    33 1   
    37    14    34 1   
    38    14    35 1   
    39    16    36 1   
    40    16    37 1   
    41    16    38 1   
    42    17    39 1   
    43    20    40 1   
    44    21    41 1   
    45    24    42 1   
@<TRIPOS>SUBSTRUCTURE
     1 4PV         1 TEMP              0 ****  ****    0 ROOT
