@<TRIPOS>MOLECULE
4PW
   21    22     1     0     0
SMALL
bcc


@<TRIPOS>ATOM
      1 O3          1.4460   -1.2740   -0.3340 oh        1 4PW     -0.603800
      2 C3          1.9900   -0.0420    0.1090 c3        1 4PW      0.080100
      3 C2          1.5700    0.1020    1.5860 c3        1 4PW      0.104100
      4 O1          2.3890   -0.7070    2.4080 oh        1 4PW     -0.590800
      5 C4          1.4940    1.1220   -0.7790 c3        1 4PW      0.086100
      6 O4          2.2750    1.1930   -1.9560 oh        1 4PW     -0.593800
      7 C5          1.5300    2.4470   -0.0010 c3        1 4PW      0.070100
      8 O5          2.4730    2.3090    1.0830 os        1 4PW     -0.416600
      9 C6          0.2090    2.6900    0.7610 c3        1 4PW      0.104400
     10 O6          0.4910    2.2200    2.0930 os        1 4PW     -0.430600
     11 C1          1.7600    1.5610    2.0680 c3        1 4PW      0.327900
     12 H1          1.6640   -1.3520   -1.2720 ho        1 4PW      0.419000
     13 H2          3.1160   -0.0870    0.0570 h1        1 4PW      0.061700
     14 H3          0.4900   -0.1960    1.7040 h1        1 4PW      0.073700
     15 H4          2.2720   -1.6150    2.0990 ho        1 4PW      0.421000
     16 H5          0.4540    0.9060   -1.1550 h1        1 4PW      0.096700
     17 H6          3.1720    1.4410   -1.6950 ho        1 4PW      0.411000
     18 H7          1.8740    3.3050   -0.6250 h1        1 4PW      0.109700
     19 H8         -0.0420    3.7750    0.8470 h1        1 4PW      0.066200
     20 H9         -0.6540    2.1080    0.3580 h1        1 4PW      0.066200
     21 H10         2.2600    1.6620    3.0590 h2        1 4PW      0.137700
@<TRIPOS>BOND
     1    1    2 1   
     2    1   12 1   
     3    2    3 1   
     4    2    5 1   
     5    2   13 1   
     6    3    4 1   
     7    3   11 1   
     8    3   14 1   
     9    4   15 1   
    10    5    6 1   
    11    5    7 1   
    12    5   16 1   
    13    6   17 1   
    14    7    8 1   
    15    7    9 1   
    16    7   18 1   
    17    8   11 1   
    18    9   10 1   
    19    9   19 1   
    20    9   20 1   
    21   10   11 1   
    22   11   21 1   
@<TRIPOS>SUBSTRUCTURE
     1 4PW         1 TEMP              0 ****  ****    0 ROOT
