@<TRIPOS>MOLECULE
molecule
   21    22     1     0     0
SMALL
bcc


@<TRIPOS>ATOM
      1 O3           0.0000     0.0000     0.0000 oh         1 4PW      -0.587800
      2 C3           1.4290     0.0000     0.0000 c3         1 4PW       0.129100
      3 C2           1.9400     0.0000     1.4450 c3         1 4PW       0.097100
      4 O1           3.3560    -0.1920     1.4520 oh         1 4PW      -0.563800
      5 C4           1.9410     1.2540    -0.7180 c3         1 4PW       0.120100
      6 O4           3.3590     1.1720    -0.8760 oh         1 4PW      -0.560800
      7 C5           1.5870     2.4840     0.1360 c3         1 4PW       0.088100
      8 O5           2.3300     2.3720     1.3760 os         1 4PW      -0.375600
      9 C6           0.1150     2.3370     0.5880 c3         1 4PW       0.102400
     10 O6           0.1820     1.6300     1.8400 os         1 4PW      -0.413600
     11 C1           1.6000     1.3510     2.0920 c3         1 4PW       0.309900
     12 H1          -0.3140    -0.8110    -0.3650 ho         1 4PW       0.397000
     13 H2           1.7910    -0.8830    -0.5120 h1         1 4PW       0.051700
     14 H3           1.4630    -0.7990     1.9990 h1         1 4PW       0.045700
     15 H4           3.5770    -0.8780     2.0600 ho         1 4PW       0.395000
     16 H5           1.4690     1.3370    -1.6900 h1         1 4PW       0.037700
     17 H6           3.5850     1.3400    -1.7760 ho         1 4PW       0.395000
     18 H7           1.7740     3.4200    -0.3770 h1         1 4PW       0.092700
     19 H8          -0.3350     3.3120     0.7290 h1         1 4PW       0.067700
     20 H9          -0.4460     1.7630    -0.1390 h1         1 4PW       0.067700
     21 H10          1.8300     1.3600     3.1500 h2         1 4PW       0.105700
@<TRIPOS>BOND
     1     4     3 1   
     2     3    11 1   
     3     3     2 1   
     4    11    10 1   
     5    11     8 1   
     6     1     2 1   
     7    10     9 1   
     8     2     5 1   
     9     8     7 1   
    10     9     7 1   
    11     5     7 1   
    12     5     6 1   
    13     1    12 1   
    14     2    13 1   
    15     3    14 1   
    16     4    15 1   
    17     5    16 1   
    18     6    17 1   
    19     7    18 1   
    20     9    19 1   
    21     9    20 1   
    22    11    21 1   
@<TRIPOS>SUBSTRUCTURE
     1 4PW         1 TEMP              0 ****  ****    0 ROOT
