@<TRIPOS>MOLECULE
molecule
   44    47     1     0     0
SMALL
bcc


@<TRIPOS>ATOM
      1 N            0.0000     0.0000     0.0000 nb         1 4PX      -0.711000
      2 C            2.0410     0.0000     1.1810 ca         1 4PX      -0.284300
      3 O           -4.0210     0.0050     2.1530 o          1 4PX      -0.617500
      4 C1           1.3170     0.0000     0.0000 ca         1 4PX       0.468200
      5 C2          -0.6980     0.0010     1.1280 ca         1 4PX       0.572200
      6 C3          -0.0280     0.0020     2.3660 ca         1 4PX      -0.199100
      7 C4           1.3690     0.0030     2.3900 ca         1 4PX      -0.051000
      8 N5          -2.0770     0.0020     1.1000 n          1 4PX      -0.324500
      9 C6          -2.8040     0.0040     2.2300 c          1 4PX       0.736700
     10 C7          -2.1950     0.0050     3.5000 cc         1 4PX      -0.128600
     11 C8          -0.8170     0.0040     3.6000 cd         1 4PX       0.030400
     12 C9          -2.7350     0.0020    -0.1360 ca         1 4PX       0.046600
     13 C10         -3.0660    -1.2010    -0.7480 ca         1 4PX      -0.099000
     14 C11         -3.7150    -1.1980    -1.9660 ca         1 4PX      -0.125000
     15 C12         -4.0360     0.0010    -2.5780 ca         1 4PX      -0.116000
     16 C13         -3.7080     1.1990    -1.9710 ca         1 4PX      -0.125000
     17 C14         -3.0640     1.2030    -0.7500 ca         1 4PX      -0.099000
     18 N15         -2.6940     0.0070     4.8030 n          1 4PX      -0.314000
     19 C16         -1.6450     0.0090     5.6500 c          1 4PX       0.782500
     20 N17         -0.5010     0.0060     4.9400 ns         1 4PX      -0.423100
     21 O18         -1.7220     0.0100     6.8650 o          1 4PX      -0.672500
     22 C19         -4.1080     0.0100     5.1840 c3         1 4PX       0.145400
     23 C20         -4.2260     0.0130     6.7090 c3         1 4PX       0.138400
     24 O21         -5.6060     0.0150     7.0810 oh         1 4PX      -0.618800
     25 C22         -4.7870     1.2600     4.6180 c3         1 4PX      -0.098100
     26 C23         -4.7900    -1.2390     4.6220 c3         1 4PX      -0.098100
     27 H1           3.1240     0.0000     1.1580 ha         1 4PX       0.146000
     28 H2           1.8460    -0.0020    -0.9450 h4         1 4PX       0.032100
     29 H3           1.9100     0.0030     3.3290 ha         1 4PX       0.141000
     30 H5          -2.8150    -2.1400    -0.2690 ha         1 4PX       0.138000
     31 H6          -3.9740    -2.1350    -2.4440 ha         1 4PX       0.134000
     32 H7          -4.5440     0.0000    -3.5350 ha         1 4PX       0.131000
     33 H8          -3.9630     2.1360    -2.4520 ha         1 4PX       0.134000
     34 H9          -2.8080     2.1430    -0.2750 ha         1 4PX       0.138000
     35 H10         -3.7450    -0.8710     7.1100 h1         1 4PX       0.048700
     36 H11         -3.7440     0.8980     7.1070 h1         1 4PX       0.048700
     37 H12         -5.6780     0.0160     8.0210 ho         1 4PX       0.409000
     38 H13         -4.0320     1.9610     4.2830 hc         1 4PX       0.054033
     39 H14         -5.4170     0.9810     3.7820 hc         1 4PX       0.054033
     40 H15         -5.3920     1.7220     5.3880 hc         1 4PX       0.054033
     41 H16         -5.4200    -0.9620     3.7860 hc         1 4PX       0.054033
     42 H17         -4.0370    -1.9430     4.2880 hc         1 4PX       0.054033
     43 H18         -5.3960    -1.6980     5.3940 hc         1 4PX       0.054033
     44 H4           0.4240     0.0060     5.3230 hn         1 4PX       0.359500
@<TRIPOS>BOND
     1     2     4 ar
     2     2     7 ar
     3     4     1 ar
     4     7     6 ar
     5     1     5 ar
     6     6     5 ar
     7     6    11 1
     8     5     8 1
     9    20    11 1
    10    20    19 1
    11    11    10 2
    12     8    12 1
    13     8     9 1
    14    13    12 ar
    15    13    14 ar
    16    12    17 ar
    17    19    21 2
    18    19    18 1
    19    14    15 ar
    20    10     9 1
    21    10    18 1
    22    17    16 ar
    23     9     3 2
    24    15    16 ar
    25    18    22 1
    26    22    23 1
    27    22    26 1
    28    22    25 1
    29    24    23 1
    30     2    27 1
    31     4    28 1
    32     7    29 1
    33    13    30 1
    34    14    31 1
    35    15    32 1
    36    16    33 1
    37    17    34 1
    38    23    35 1
    39    23    36 1
    40    24    37 1
    41    25    38 1
    42    25    39 1
    43    25    40 1
    44    26    41 1
    45    26    42 1
    46    26    43 1
    47    20    44 1
@<TRIPOS>SUBSTRUCTURE
     1 4PX         1 TEMP              0 ****  ****    0 ROOT
