@<TRIPOS>MOLECULE
molecule
   50    54     1     0     0
SMALL
bcc


@<TRIPOS>ATOM
      1 C4           0.0000     0.0000     0.0000 ce         1 4PY      -0.141200
      2 C5           3.5830     0.0010     0.3490 cd         1 4PY       0.369200
      3 C6           2.1140    -0.0020     2.5040 c3         1 4PY       0.006900
      4 C8           1.5910     0.0020    -2.4210 c2         1 4PY       0.012800
      5 C10          2.7770     1.1940     3.2340 c3         1 4PY       0.104500
      6 C15          0.0660     3.4490     2.2990 ca         1 4PY      -0.016200
      7 C17          0.6210     4.5740     1.7290 ca         1 4PY       0.354200
      8 C20         -3.4420     3.7490     0.9570 ce         1 4PY       0.474200
      9 C21         -1.3660     5.1250     0.7160 ca         1 4PY       0.428200
     10 C22         -3.8400     2.3140     0.9460 ce         1 4PY      -0.142600
     11 C24         -5.1160     2.0920     0.6830 cd         1 4PY      -0.261600
     12 C26         -6.0530     3.1590     0.4340 cd         1 4PY       0.293600
     13 C1           1.4420     0.0000     0.0000 cc         1 4PY      -0.067100
     14 C2           2.2830     0.0000     1.0390 cd         1 4PY      -0.302600
     15 C3           2.2050     0.0010    -1.2320 cc         1 4PY       0.213300
     16 N7           3.5450     0.0010    -0.9500 nc         1 4PY      -0.597000
     17 C9          -0.6390    -0.0000    -1.1830 c2         1 4PY      -0.113200
     18 C11          0.0790     0.0020    -2.5210 c3         1 4PY      -0.045000
     19 C12          2.2090     2.5520     2.8030 c3         1 4PY       0.116400
     20 N13          2.5710     1.0470     4.6780 nz         1 4PY      -0.807600
     21 O14          0.8200     2.6240     3.0930 os         1 4PY      -0.365900
     22 C16         -1.2650     3.1630     2.0560 ca         1 4PY      -0.093000
     23 C18         -2.0070     4.0180     1.2460 ca         1 4PY      -0.212200
     24 N19         -0.0660     5.4260     0.9370 nb         1 4PY      -0.605000
     25 N23         -4.2210     4.7550     0.7550 n2         1 4PY      -0.538900
     26 C25         -5.6460     4.5850     0.4610 c3         1 4PY       0.071500
     27 C27         -5.9440     0.9130     0.5670 cd         1 4PY       0.336200
     28 N28         -7.2500     2.6910     0.2020 nc         1 4PY      -0.301000
     29 N29         -7.1740     1.2330     0.2890 nc         1 4PY      -0.282000
     30 H4          -0.5550    -0.0010     0.9310 ha         1 4PY       0.133000
     31 H5           4.4700    -0.3470     0.8650 h4         1 4PY       0.021100
     32 H61          2.5370    -0.9190     2.8960 hc         1 4PY       0.065200
     33 H62          1.0530     0.0090     2.7260 hc         1 4PY       0.065200
     34 H8           2.1840     0.0030    -3.3270 ha         1 4PY       0.167000
     35 H10          3.8410     1.1800     3.0300 hx         1 4PY       0.120700
     36 H17          1.6650     4.7860     1.9260 h4         1 4PY       0.020100
     37 H21         -1.9410     5.7920     0.0850 h4         1 4PY       0.056100
     38 H22         -3.2710     1.5900     1.5160 ha         1 4PY       0.151000
     39 H9          -1.7230    -0.0030    -1.1810 ha         1 4PY       0.141000
     40 H111        -0.2280     0.8830    -3.0710 hc         1 4PY       0.101200
     41 H112        -0.2270    -0.8790    -3.0730 hc         1 4PY       0.101200
     42 H121         2.7270     3.3410     3.3350 h1         1 4PY       0.081700
     43 H122         2.3600     2.6800     1.7380 h1         1 4PY       0.081700
     44 H131         3.0240     0.2140     4.9970 hn         1 4PY       0.457133
     45 H132         2.9580     1.8390     5.1520 hn         1 4PY       0.457133
     46 H16         -1.7260     2.2850     2.4920 ha         1 4PY       0.144000
     47 H251        -5.8280     4.9960    -0.5250 h1         1 4PY       0.118200
     48 H252        -6.2030     5.0700     1.2540 h1         1 4PY       0.118200
     49 H27         -5.5230    -0.0080     0.1830 h4         1 4PY       0.047100
     50 H133         1.5920     0.9740     4.8690 hn         1 4PY       0.457133
@<TRIPOS>BOND
     1     1    17 2
     2     1    13 1
     3     1    30 1
     4     2    16 2
     5     2    14 1
     6     2    31 1
     7     3    14 1
     8     3     5 1
     9     3    32 1
    10     3    33 1
    11     4    18 1
    12     4    15 2
    13     4    34 1
    14     5    19 1
    15     5    20 1
    16     5    35 1
    17     6     7 ar
    18     6    22 ar
    19     6    21 1
    20     7    24 ar
    21     7    36 1
    22     8    25 2
    23     8    23 1
    24     8    10 1
    25     9    24 ar
    26     9    23 ar
    27     9    37 1
    28    10    11 2
    29    10    38 1
    30    11    12 1
    31    11    27 1
    32    12    26 1
    33    12    28 2
    34    13    15 1
    35    13    14 2
    36    15    16 1
    37    17    18 1
    38    17    39 1
    39    18    40 1
    40    18    41 1
    41    19    21 1
    42    19    42 1
    43    19    43 1
    44    20    44 1
    45    20    45 1
    46    22    23 ar
    47    22    46 1
    48    25    26 1
    49    26    47 1
    50    26    48 1
    51    27    29 2
    52    27    49 1
    53    28    29 1
    54    50    20 1
@<TRIPOS>SUBSTRUCTURE
     1 4PY         1 TEMP              0 ****  ****    0 ROOT
