@<TRIPOS>MOLECULE
molecule
   12    12     1     0     0
SMALL
bcc


@<TRIPOS>ATOM
      1 C3           0.0000     0.0000     0.0000 cc         1 4PZ      -0.116300
      2 N2           1.3500     0.0000     0.0000 na         1 4PZ      -0.046600
      3 N1           1.7810     0.0000     1.3320 nc         1 4PZ      -0.512800
      4 C4          -0.4120     0.0000     1.2900 cd         1 4PZ      -0.308600
      5 C19         -1.8420     0.0000     1.7630 c3         1 4PZ      -0.009800
      6 C5           0.7250     0.0000     2.1050 cd         1 4PZ       0.337200
      7 H3          -0.6390    -0.0000    -0.8750 h4         1 4PZ       0.169000
      8 HN2          1.9390     0.0000    -0.8090 hn         1 4PZ       0.327700
      9 H19         -2.4970     0.2380     0.9340 hc         1 4PZ       0.037367
     10 H19A        -2.0940    -0.9790     2.1520 hc         1 4PZ       0.037367
     11 H19B        -1.9640     0.7410     2.5440 hc         1 4PZ       0.037367
     12 H5           0.7300     0.0000     3.1880 h4         1 4PZ       0.048100
@<TRIPOS>BOND
     1     1     2 1
     2     1     4 2
     3     2     3 1
     4     3     6 2
     5     4     5 1
     6     4     6 1
     7     1     7 1
     8     2     8 1
     9     5     9 1
    10     5    10 1
    11     5    11 1
    12     6    12 1
@<TRIPOS>SUBSTRUCTURE
     1 4PZ         1 TEMP              0 ****  ****    0 ROOT
