@<TRIPOS>MOLECULE
4PZ
   12    12     1     0     0
SMALL
bcc


@<TRIPOS>ATOM
      1 C3         -0.0300   -0.0030   -0.0390 cc        1 4PZ     -0.150300
      2 N2          1.3660   -0.0030    0.0240 na        1 4PZ     -0.024600
      3 N1          1.8180    0.0000    1.2780 nc        1 4PZ     -0.515800
      4 C4         -0.4850    0.0000    1.2900 cd        1 4PZ     -0.246600
      5 C19        -1.8590    0.0020    1.7800 c3        1 4PZ     -0.015800
      6 C5          0.7270    0.0020    2.0870 cd        1 4PZ      0.293200
      7 H3         -0.5720   -0.0050   -0.9830 h4        1 4PZ      0.175000
      8 HN2         2.0000   -0.0050   -0.7390 hn        1 4PZ      0.318700
      9 H19        -2.0540   -0.9070    2.4050 hc        1 4PZ      0.041700
     10 H19A       -2.0490    0.9050    2.4140 hc        1 4PZ      0.041700
     11 H19B       -2.5880    0.0070    0.9320 hc        1 4PZ      0.041700
     12 H5          0.8060    0.0050    3.1730 h4        1 4PZ      0.042100
@<TRIPOS>BOND
     1    1    2 1   
     2    1    4 2   
     3    1    7 1   
     4    2    3 1   
     5    2    8 1   
     6    3    6 2   
     7    4    5 1   
     8    4    6 1   
     9    5    9 1   
    10    5   10 1   
    11    5   11 1   
    12    6   12 1   
@<TRIPOS>SUBSTRUCTURE
     1 4PZ         1 TEMP              0 ****  ****    0 ROOT
