@<TRIPOS>MOLECULE
molecule
   61    65     1     0     0
SMALL
bcc


@<TRIPOS>ATOM
      1 C2           0.0000     0.0000     0.0000 ca         1 4Q0      -0.122000
      2 C3           1.3960     0.0000     0.0000 ca         1 4Q0       0.197400
      3 C5           1.3790    -0.0020    -2.4310 ca         1 4Q0      -0.052000
      4 C9           5.5520    -0.0000     0.1070 ca         1 4Q0      -0.025400
      5 C11          3.0950    -0.0340     3.6150 c3         1 4Q0       0.126000
      6 C12          6.2200    -1.1320     0.5520 ca         1 4Q0      -0.073500
      7 C13          7.5980    -1.1320     0.6390 ca         1 4Q0      -0.185000
      8 C15          7.6480     1.1330    -0.1640 ca         1 4Q0      -0.185000
      9 C18         10.2930    -1.2000     0.8290 c3         1 4Q0       0.127700
     10 N19          3.7900    -0.0340     4.9040 n          1 4Q0      -0.499400
     11 C20          4.1280     1.0760     5.5860 c          1 4Q0       0.721100
     12 C21          4.8100     0.6700     6.8320 ca         1 4Q0      -0.114600
     13 C22          4.8390    -0.7400     6.8150 ca         1 4Q0      -0.200600
     14 C            0.0020    -0.0010    -2.4050 ca         1 4Q0      -0.155000
     15 N            2.1080     0.0000     1.1550 nc         1 4Q0      -0.658100
     16 C1          -0.6830     0.0000    -1.1960 ca         1 4Q0      -0.092000
     17 C4           2.0880    -0.0010    -1.2320 ca         1 4Q0      -0.205600
     18 C6           3.4050    -0.0000     1.1550 cd         1 4Q0       0.513900
     19 N7           4.1530    -0.0010     0.0180 n          1 4Q0      -0.285500
     20 C8           3.5580    -0.0010    -1.1980 c          1 4Q0       0.709100
     21 C14          8.3160     0.0010     0.2810 ca         1 4Q0       0.153100
     22 C16          6.2700     1.1350    -0.2460 ca         1 4Q0      -0.073500
     23 O17          9.6730    -0.0010     0.3620 os         1 4Q0      -0.324900
     24 C23          4.1700    -1.1430     5.5640 c          1 4Q0       0.728100
     25 C24          5.3660     1.3570     7.8980 ca         1 4Q0      -0.103000
     26 C25          5.9480     0.6560     8.9440 ca         1 4Q0      -0.074000
     27 C26          5.9800    -0.7230     8.9330 ca         1 4Q0      -0.213000
     28 C27          5.4250    -1.4330     7.8700 ca         1 4Q0       0.214100
     29 O28          3.9970    -2.2850     5.1880 o          1 4Q0      -0.567500
     30 O29          3.9090     2.2180     5.2370 o          1 4Q0      -0.574500
     31 O30          5.4580    -2.7880     7.8620 os         1 4Q0      -0.298900
     32 C31          6.0260    -3.4290     9.0060 c3         1 4Q0       0.131100
     33 C32          4.9620    -3.5570    10.0990 c3         1 4Q0      -0.105100
     34 C33          6.5240    -4.8220     8.6150 c3         1 4Q0      -0.105100
     35 H1          -0.5440     0.0010     0.9370 ha         1 4Q0       0.149000
     36 H2           1.9070    -0.0020    -3.3770 ha         1 4Q0       0.154000
     37 H3           4.7600    -0.8720     2.5460 hc         1 4Q0       0.080200
     38 H4           4.7240     0.8960     2.5650 hc         1 4Q0       0.080200
     39 H5           2.4550     0.8390     3.5490 h1         1 4Q0       0.089700
     40 H6           2.4920    -0.9300     3.5290 h1         1 4Q0       0.089700
     41 H7           5.6600    -2.0160     0.8310 ha         1 4Q0       0.146500
     42 H8           8.1190    -2.0160     0.9870 ha         1 4Q0       0.147500
     43 H9           8.2090     2.0170    -0.4420 ha         1 4Q0       0.147500
     44 H10         10.0450    -2.0180     0.1630 h1         1 4Q0       0.043700
     45 H11          9.9370    -1.4270     1.8270 h1         1 4Q0       0.043700
     46 H12         11.3680    -1.0660     0.8510 h1         1 4Q0       0.043700
     47 H13         -0.5530    -0.0010    -3.3360 ha         1 4Q0       0.136000
     48 H14         -1.7660     0.0010    -1.1940 ha         1 4Q0       0.134000
     49 H15          5.7490     2.0190    -0.5940 ha         1 4Q0       0.146500
     50 H16          5.3450     2.4400     7.9160 ha         1 4Q0       0.152000
     51 H17          6.3830     1.1960     9.7770 ha         1 4Q0       0.142000
     52 H18          6.4390    -1.2570     9.7570 ha         1 4Q0       0.149000
     53 H19          6.8550    -2.8390     9.3770 h1         1 4Q0       0.043700
     54 H20          5.4100    -3.9790    10.9910 hc         1 4Q0       0.049700
     55 H21          4.1660    -4.2050     9.7540 hc         1 4Q0       0.049700
     56 H22          4.5580    -2.5780    10.3260 hc         1 4Q0       0.049700
     57 H23          7.3120    -4.7290     7.8760 hc         1 4Q0       0.049700
     58 H24          6.9100    -5.3270     9.4920 hc         1 4Q0       0.049700
     59 H25          5.7050    -5.3960     8.1990 hc         1 4Q0       0.049700
     60 C10          4.1210     0.0000     2.4800 c3         1 4Q0      -0.138700
     61 O            4.2140    -0.0020    -2.2230 o          1 4Q0      -0.607500
@<TRIPOS>BOND
     1    33    32 1
     2    34    32 1
     3    32    31 1
     4    31    28 1
     5    28    27 ar
     6    28    13 ar
     7    27    26 ar
     8    29    24 2
     9    13    24 1
    10    13    12 ar
    11    26    25 ar
    12    24    10 1
    13    12    25 ar
    14    12    11 1
    15    10    11 1
    16    10     5 1
    17    11    30 2
    18    60     5 1
    19    60    18 1
    20    15    18 2
    21    15     2 1
    22    18    19 1
    23     1     2 ar
    24     1    16 ar
    25     2    17 ar
    26    22     8 ar
    27    22     4 ar
    28    19     4 1
    29    19    20 1
    30     8    21 ar
    31    16    14 ar
    32     4     6 ar
    33    21    23 1
    34    21     7 ar
    35     6     7 ar
    36    17    20 1
    37    17     3 ar
    38    23     9 1
    39    20    61 2
    40    14     3 ar
    41     1    35 1
    42     3    36 1
    43    60    37 1
    44    60    38 1
    45     5    39 1
    46     5    40 1
    47     6    41 1
    48     7    42 1
    49     8    43 1
    50     9    44 1
    51     9    45 1
    52     9    46 1
    53    14    47 1
    54    16    48 1
    55    22    49 1
    56    25    50 1
    57    26    51 1
    58    27    52 1
    59    32    53 1
    60    33    54 1
    61    33    55 1
    62    33    56 1
    63    34    57 1
    64    34    58 1
    65    34    59 1
@<TRIPOS>SUBSTRUCTURE
     1 4Q0         1 TEMP              0 ****  ****    0 ROOT
