@<TRIPOS>MOLECULE
4Q1
   68    72     1     0     0
SMALL
bcc


@<TRIPOS>ATOM
      1 C1         -0.4070    0.0350    0.2280 c3        1 4Q1      0.115700
      2 O1          1.0090   -0.0930    0.2150 os        1 4Q1     -0.332900
      3 C2          1.6490    0.0430    1.4350 ca        1 4Q1      0.136100
      4 C3          3.0420   -0.0660    1.3630 ca        1 4Q1     -0.176000
      5 C4          3.7550    0.0560    2.5620 ca        1 4Q1     -0.012200
      6 C5          3.0700    0.2760    3.8180 ca        1 4Q1     -0.090800
      7 C6          1.6810    0.3890    3.8380 ca        1 4Q1     -0.045000
      8 C7          0.9710    0.2700    2.6520 ca        1 4Q1     -0.220000
      9 N18         5.1410    0.0390    2.8020 na        1 4Q1     -0.050400
     10 C19         5.3320    0.1880    4.1820 cc        1 4Q1     -0.062300
     11 C20         4.0990    0.3500    4.8250 cd        1 4Q1     -0.142400
     12 C21         6.1190   -0.2900    1.8040 c3        1 4Q1      0.076500
     13 C22         6.3930   -1.7500    1.6150 c2        1 4Q1     -0.208200
     14 C23         7.0490   -2.2200    0.5420 c2        1 4Q1     -0.108400
     15 C24         7.3270   -3.6670    0.3760 c3        1 4Q1     -0.063400
     16 C26         7.5330   -1.3390   -0.5480 c3        1 4Q1     -0.063400
     17 C33         3.9380    0.5280    6.2820 c3        1 4Q1      0.247300
     18 C34         5.3330    0.5370    7.0430 c3        1 4Q1      0.201200
     19 N35         6.4050   -0.1730    6.3390 n         1 4Q1     -0.475800
     20 C36         6.6140    0.3020    4.9630 c3        1 4Q1      0.204100
     21 C37         7.8000   -0.3220    4.2970 c2        1 4Q1     -0.195200
     22 C38         9.0060    0.2640    4.2210 c2        1 4Q1     -0.089400
     23 C39        10.1380   -0.4090    3.5350 c3        1 4Q1     -0.067900
     24 C40         9.3110    1.6010    4.7850 c3        1 4Q1     -0.067900
     25 O41         3.2410    1.7300    6.5350 oh        1 4Q1     -0.571800
     26 C42         5.0230   -0.0130    8.4700 c         1 4Q1      0.647500
     27 N43         5.8260   -0.9850    9.0380 n         1 4Q1     -0.425800
     28 C44         6.7490   -1.7670    8.2250 c3        1 4Q1      0.010700
     29 C45         6.7210   -1.4800    6.7190 c         1 4Q1      0.693500
     30 O46         4.0820    0.5050    9.1000 o         1 4Q1     -0.612500
     31 O47         7.0970   -2.3560    5.9250 o         1 4Q1     -0.598500
     32 O48         5.6610    1.9130    7.1880 oh        1 4Q1     -0.558800
     33 C53         5.3080   -1.8160   10.1230 c3        1 4Q1      0.069000
     34 C54         5.6310   -3.2830    9.7900 c3        1 4Q1     -0.101400
     35 C55         6.4950   -3.2600    8.5330 c3        1 4Q1     -0.085400
     36 H1         -0.7110    1.0460    0.5920 h1        1 4Q1      0.042700
     37 H2         -0.6900   -0.0980   -0.8470 h1        1 4Q1      0.042700
     38 H3         -0.8710   -0.7630    0.8570 h1        1 4Q1      0.042700
     39 H4          3.5370   -0.2430    0.4000 ha        1 4Q1      0.150000
     40 H5          1.1640    0.5850    4.7890 ha        1 4Q1      0.145000
     41 H6         -0.1230    0.3590    2.6680 ha        1 4Q1      0.135000
     42 H7          7.0880    0.2290    2.0730 h1        1 4Q1      0.070700
     43 H8          5.7570    0.1470    0.8240 h1        1 4Q1      0.070700
     44 H9          6.0400   -2.4330    2.4050 ha        1 4Q1      0.146000
     45 H10         6.8840   -4.0340   -0.5840 hc        1 4Q1      0.043867
     46 H11         8.4320   -3.8430    0.3400 hc        1 4Q1      0.043867
     47 H12         6.9020   -4.2700    1.2150 hc        1 4Q1      0.043867
     48 H13         8.2010   -1.8940   -1.2510 hc        1 4Q1      0.043867
     49 H14         8.1020   -0.4710   -0.1310 hc        1 4Q1      0.043867
     50 H15         6.6660   -0.9360   -1.1320 hc        1 4Q1      0.043867
     51 H16         3.3450   -0.3390    6.7020 h1        1 4Q1      0.048700
     52 H17         6.7990    1.4230    5.0740 h1        1 4Q1      0.091700
     53 H18         7.6270   -1.3290    3.8780 ha        1 4Q1      0.159000
     54 H19         9.8310   -1.3870    3.0890 hc        1 4Q1      0.046200
     55 H20        10.5360    0.2450    2.7190 hc        1 4Q1      0.046200
     56 H21        10.9640   -0.5990    4.2650 hc        1 4Q1      0.046200
     57 H22         8.9770    1.6700    5.8510 hc        1 4Q1      0.046200
     58 H23        10.4090    1.8110    4.7500 hc        1 4Q1      0.046200
     59 H24         8.7850    2.3980    4.2020 hc        1 4Q1      0.046200
     60 H25         3.3050    1.8990    7.4880 ho        1 4Q1      0.429000
     61 H26         7.7970   -1.4940    8.5580 h1        1 4Q1      0.091700
     62 H27         6.4460    1.9840    7.7480 ho        1 4Q1      0.416000
     63 H28         5.8220   -1.5020   11.0720 h1        1 4Q1      0.069700
     64 H29         4.2030   -1.6520   10.2510 h1        1 4Q1      0.069700
     65 H30         4.6900   -3.8590    9.6150 hc        1 4Q1      0.059200
     66 H31         6.1730   -3.7600   10.6420 hc        1 4Q1      0.059200
     67 H32         7.4690   -3.7810    8.6920 hc        1 4Q1      0.071700
     68 H33         5.9800   -3.7540    7.6720 hc        1 4Q1      0.071700
@<TRIPOS>BOND
     1    1    2 1   
     2    1   36 1   
     3    1   37 1   
     4    1   38 1   
     5    2    3 1   
     6    3    4 ar  
     7    3    8 ar  
     8    4    5 ar  
     9    4   39 1   
    10    5    6 ar  
    11    5    9 1   
    12    6    7 ar  
    13    6   11 1   
    14    7    8 ar  
    15    7   40 1   
    16    8   41 1   
    17    9   10 1   
    18    9   12 1   
    19   10   11 2   
    20   10   20 1   
    21   11   17 1   
    22   12   13 1   
    23   12   42 1   
    24   12   43 1   
    25   13   14 2   
    26   13   44 1   
    27   14   15 1   
    28   14   16 1   
    29   15   45 1   
    30   15   46 1   
    31   15   47 1   
    32   16   48 1   
    33   16   49 1   
    34   16   50 1   
    35   17   18 1   
    36   17   25 1   
    37   17   51 1   
    38   18   19 1   
    39   18   26 1   
    40   18   32 1   
    41   19   20 1   
    42   19   29 1   
    43   20   21 1   
    44   20   52 1   
    45   21   22 2   
    46   21   53 1   
    47   22   23 1   
    48   22   24 1   
    49   23   54 1   
    50   23   55 1   
    51   23   56 1   
    52   24   57 1   
    53   24   58 1   
    54   24   59 1   
    55   25   60 1   
    56   26   27 1   
    57   26   30 2   
    58   27   28 1   
    59   27   33 1   
    60   28   29 1   
    61   28   35 1   
    62   28   61 1   
    63   29   31 2   
    64   32   62 1   
    65   33   34 1   
    66   33   63 1   
    67   33   64 1   
    68   34   35 1   
    69   34   65 1   
    70   34   66 1   
    71   35   67 1   
    72   35   68 1   
@<TRIPOS>SUBSTRUCTURE
     1 4Q1         1 TEMP              0 ****  ****    0 ROOT
