@<TRIPOS>MOLECULE
molecule
   68    72     1     0     0
SMALL
bcc


@<TRIPOS>ATOM
      1 C1           0.0000     0.0000     0.0000 c3         1 4Q1       0.129700
      2 O1           1.4290     0.0000     0.0000 os         1 4Q1      -0.332900
      3 C2           2.0470     0.0000     1.2100 ca         1 4Q1       0.160100
      4 C3           3.4340     0.0050     1.2570 ca         1 4Q1      -0.188000
      5 C4           4.0230     0.0120     2.5200 ca         1 4Q1       0.004800
      6 C5           3.2220     0.0120     3.6900 ca         1 4Q1      -0.123800
      7 C6           1.8250     0.0070     3.6170 ca         1 4Q1      -0.032000
      8 C7           1.2690     0.0000     2.3620 ca         1 4Q1      -0.249000
      9 N18          5.3280     0.0170     2.9210 na         1 4Q1      -0.042400
     10 C19          5.3910     0.0190     4.2910 cc         1 4Q1      -0.054300
     11 C20          4.1450     0.0150     4.8080 cd         1 4Q1      -0.189400
     12 C21          6.4860     0.0190     2.0240 c3         1 4Q1       0.073500
     13 C22          6.7940    -1.3940     1.5990 c2         1 4Q1      -0.207200
     14 C23          6.9150    -1.6840     0.3260 c2         1 4Q1      -0.113400
     15 C24          7.0880    -3.1170    -0.1060 c3         1 4Q1      -0.056900
     16 C26          6.8810    -0.5850    -0.7030 c3         1 4Q1      -0.056900
     17 C33          3.8300     0.0110     6.2800 c3         1 4Q1       0.248300
     18 C34          5.0780     0.4400     7.0680 c3         1 4Q1       0.230200
     19 N35          6.2500    -0.2500     6.5340 n          1 4Q1      -0.483800
     20 C36          6.6430     0.0330     5.1350 c3         1 4Q1       0.215100
     21 C37          7.5960    -1.0290     4.6500 c2         1 4Q1      -0.135200
     22 C38          8.7830    -0.6900     4.2080 c2         1 4Q1      -0.157400
     23 C39          9.7650    -1.7570     3.7950 c3         1 4Q1      -0.048900
     24 C40          9.1660     0.7640     4.1150 c3         1 4Q1      -0.048900
     25 O41          2.7620     0.9240     6.5420 oh         1 4Q1      -0.580800
     26 C42          4.8470     0.1340     8.5200 c          1 4Q1       0.683500
     27 N43          5.5800    -0.7720     9.1710 n          1 4Q1      -0.496800
     28 C44          6.8740    -1.3130     8.7080 c3         1 4Q1       0.032700
     29 C45          7.0100    -1.0960     7.2380 c          1 4Q1       0.698500
     30 O46          3.9730     0.7260     9.1170 o          1 4Q1      -0.595500
     31 O47          7.8600    -1.7270     6.6460 o          1 4Q1      -0.619500
     32 O48          5.2720     1.8470     6.9090 oh         1 4Q1      -0.583800
     33 C53          5.2890    -1.4460    10.4420 c3         1 4Q1       0.107000
     34 C54          6.0200    -2.8050    10.4030 c3         1 4Q1      -0.102400
     35 C55          6.7740    -2.8150     9.0500 c3         1 4Q1      -0.074400
     36 H1          -0.3610     0.8860     0.5080 h1         1 4Q1       0.040367
     37 H2          -0.3610    -0.0030    -1.0210 h1         1 4Q1       0.040367
     38 H3          -0.3610    -0.8830     0.5130 h1         1 4Q1       0.040367
     39 H4           4.0060    -0.3140     0.3940 ha         1 4Q1       0.148000
     40 H5           1.2110     0.0070     4.5090 ha         1 4Q1       0.150000
     41 H6           0.1900    -0.0050     2.2670 ha         1 4Q1       0.132000
     42 H7           7.3420     0.4370     2.5390 h1         1 4Q1       0.072700
     43 H8           6.2630     0.6190     1.1490 h1         1 4Q1       0.072700
     44 H9           6.8190    -2.1850     2.3380 ha         1 4Q1       0.141000
     45 H10          6.7470    -3.7760     0.6830 hc         1 4Q1       0.044367
     46 H11          6.5060    -3.2960    -1.0020 hc         1 4Q1       0.044367
     47 H12          8.1340    -3.3090    -0.3110 hc         1 4Q1       0.044367
     48 H13          5.8730    -0.1950    -0.7820 hc         1 4Q1       0.044367
     49 H14          7.1910    -0.9790    -1.6630 hc         1 4Q1       0.044367
     50 H15          7.5530     0.2110    -0.4050 hc         1 4Q1       0.044367
     51 H16          3.5400    -0.9880     6.5830 h1         1 4Q1       0.095700
     52 H17          7.1120     1.0080     5.0780 h1         1 4Q1       0.087700
     53 H18          7.3220    -2.0740     4.7170 ha         1 4Q1       0.151000
     54 H19          9.2740    -2.7230     3.8020 hc         1 4Q1       0.040200
     55 H20         10.1310    -1.5450     2.7980 hc         1 4Q1       0.040200
     56 H21         10.5970    -1.7710     4.4900 hc         1 4Q1       0.040200
     57 H22          8.2730     1.3760     4.1550 hc         1 4Q1       0.040200
     58 H23          9.6840     0.9410     3.1800 hc         1 4Q1       0.040200
     59 H24          9.8170     1.0200     4.9420 hc         1 4Q1       0.040200
     60 H25          2.9780     1.7700     6.1860 ho         1 4Q1       0.423000
     61 H26          7.6950    -0.8510     9.2430 h1         1 4Q1       0.090700
     62 H27          5.4870     2.2310     7.7430 ho         1 4Q1       0.423000
     63 H28          5.6580    -0.8510    11.2680 h1         1 4Q1       0.060200
     64 H29          4.2210    -1.6040    10.5400 h1         1 4Q1       0.060200
     65 H30          5.3040    -3.6170    10.4390 hc         1 4Q1       0.058200
     66 H31          6.7220    -2.8760    11.2250 hc         1 4Q1       0.058200
     67 H32          6.2010    -3.3410     8.2960 hc         1 4Q1       0.069200
     68 H33          7.7610    -3.2470     9.1650 hc         1 4Q1       0.069200
@<TRIPOS>BOND
     1    23    22 1
     2    31    29 2
     3    21    22 2
     4    21    20 1
     5    22    24 1
     6    29    19 1
     7    29    28 1
     8    20    19 1
     9    20    10 1
    10    35    28 1
    11    35    34 1
    12    19    18 1
    13    12    13 1
    14    12     9 1
    15    28    27 1
    16    10     9 1
    17    10    11 2
    18    13    14 2
    19    15    14 1
    20    32    18 1
    21     9     5 1
    22    34    33 1
    23    14    16 1
    24    18    17 1
    25    18    26 1
    26    25    17 1
    27    27    26 1
    28    27    33 1
    29    11    17 1
    30    11     6 1
    31    26    30 2
    32     5     6 ar
    33     5     4 ar
    34     6     7 ar
    35     4     3 ar
    36     7     8 ar
    37     3     8 ar
    38     3     2 1
    39     1     2 1
    40     1    36 1
    41     1    37 1
    42     1    38 1
    43     4    39 1
    44     7    40 1
    45     8    41 1
    46    12    42 1
    47    12    43 1
    48    13    44 1
    49    15    45 1
    50    15    46 1
    51    15    47 1
    52    16    48 1
    53    16    49 1
    54    16    50 1
    55    17    51 1
    56    20    52 1
    57    21    53 1
    58    23    54 1
    59    23    55 1
    60    23    56 1
    61    24    57 1
    62    24    58 1
    63    24    59 1
    64    25    60 1
    65    28    61 1
    66    32    62 1
    67    33    63 1
    68    33    64 1
    69    34    65 1
    70    34    66 1
    71    35    67 1
    72    35    68 1
@<TRIPOS>SUBSTRUCTURE
     1 4Q1         1 TEMP              0 ****  ****    0 ROOT
