@<TRIPOS>MOLECULE
molecule
   56    59     1     0     0
SMALL
bcc


@<TRIPOS>ATOM
      1 C1           0.0000     0.0000     0.0000 c3         1 4Q2      -0.028100
      2 C2           1.5260     0.0000     0.0000 c3         1 4Q2      -0.098700
      3 C3           2.0470     0.0000     1.4270 cc         1 4Q2       0.418600
      4 C11         -1.7520     1.6690     0.6710 ca         1 4Q2       0.469200
      5 C13         -1.6430     2.7110     2.7280 ca         1 4Q2       0.702300
      6 C15          4.8090    -0.7500     5.0290 c          1 4Q2       0.809100
      7 C17          6.2680    -1.1180     7.0350 c3         1 4Q2       0.068700
      8 C18          7.6290    -1.8190     7.2360 c3         1 4Q2      -0.090700
      9 C19          8.2370    -1.8130     5.8090 c3         1 4Q2      -0.087400
     10 C20          6.9770    -2.0140     4.9320 c3         1 4Q2       0.089000
     11 C22          8.5080    -1.0240     8.2030 c3         1 4Q2      -0.110100
     12 C23         -2.2670     3.6530     3.7250 c3         1 4Q2      -0.095300
     13 C24         -1.3030     4.8050     4.0110 c3         1 4Q2      -0.076433
     14 C25         -3.5720     4.2110     3.1500 c3         1 4Q2      -0.076433
     15 C26         -2.5630     2.9000     5.0230 c3         1 4Q2      -0.076433
     16 C27          6.3820     0.3380     7.4070 c          1 4Q2       0.475100
     17 C4           1.3460     0.6170     2.4270 cd         1 4Q2      -0.268900
     18 S5           2.2430     0.4620     3.9220 ss         1 4Q2       0.010700
     19 C6           3.4600    -0.4240     3.1110 cd         1 4Q2       0.514300
     20 N7           3.1650    -0.5490     1.8520 nc         1 4Q2      -0.724000
     21 N8           4.5990    -0.9370     3.7110 ns         1 4Q2      -0.503400
     22 C9           0.0620     1.2830     2.1710 ca         1 4Q2       0.556800
     23 C10         -0.5710     1.0130     0.9480 ca         1 4Q2      -0.330900
     24 N12         -2.2490     2.5010     1.5770 nb         1 4Q2      -0.728000
     25 N14         -0.5030     2.1190     3.0320 nb         1 4Q2      -0.734000
     26 N16          5.9170    -1.2470     5.6130 n          1 4Q2      -0.494800
     27 O21          3.9980    -0.1310     5.6920 o          1 4Q2      -0.651100
     28 O28          6.5130     1.1770     6.5410 o          1 4Q2      -0.380100
     29 N29          6.3370     0.7080     8.7020 nz         1 4Q2      -0.684400
     30 H31         -0.3270    -0.9780     0.3300 hc         1 4Q2       0.065200
     31 H30         -0.3270     0.2650    -0.9980 hc         1 4Q2       0.065200
     32 H33          1.8610     0.9120    -0.4790 hc         1 4Q2       0.073200
     33 H32          1.8610    -0.9120    -0.4790 hc         1 4Q2       0.073200
     34 H35         -2.2630     1.5080    -0.2700 h4         1 4Q2       0.036100
     35 H36          5.5140    -1.6010     7.6440 h1         1 4Q2       0.093700
     36 H37          7.4860    -2.8350     7.5840 hc         1 4Q2       0.105700
     37 H38          8.7080    -0.8610     5.5950 hc         1 4Q2       0.082700
     38 H39          8.9310    -2.6350     5.6830 hc         1 4Q2       0.082700
     39 H41          6.7130    -3.0640     4.8890 h1         1 4Q2       0.074700
     40 H40          7.1450    -1.6200     3.9370 h1         1 4Q2       0.074700
     41 H42          8.6280    -0.0130     7.8350 hc         1 4Q2       0.047367
     42 H43          8.0400    -1.0000     9.1800 hc         1 4Q2       0.047367
     43 H44          9.4800    -1.4980     8.2800 hc         1 4Q2       0.047367
     44 H46         -0.4610     4.4370     4.5850 hc         1 4Q2       0.042033
     45 H47         -0.9480     5.2200     3.0750 hc         1 4Q2       0.042033
     46 H45         -1.8160     5.5740     4.5750 hc         1 4Q2       0.042033
     47 H49         -4.2560     3.3950     2.9480 hc         1 4Q2       0.042033
     48 H50         -3.3630     4.7430     2.2300 hc         1 4Q2       0.042033
     49 H48         -4.0210     4.8900     3.8650 hc         1 4Q2       0.042033
     50 H53         -3.0800     1.9760     4.7940 hc         1 4Q2       0.042033
     51 H51         -1.6330     2.6780     5.5310 hc         1 4Q2       0.042033
     52 H52         -3.1860     3.5140     5.6620 hc         1 4Q2       0.042033
     53 H34          5.2580    -1.4600     3.1690 hn         1 4Q2       0.347500
     54 H55          6.2180    -0.1030     9.2760 hn         1 4Q2       0.477133
     55 H54          5.5690     1.3330     8.8440 hn         1 4Q2       0.477133
     56 H293         7.1910     1.1680     8.9470 hn         1 4Q2       0.477133
@<TRIPOS>BOND
     1    15    12 1   
     2    14    12 1   
     3    12    13 1   
     4    12     5 1   
     5    24     5 ar  
     6    24     4 ar  
     7     5    25 ar  
     8     4    23 ar  
     9    25    22 ar  
    10    23    22 ar  
    11    23     1 1   
    12    22    17 1   
    13     1     2 1   
    14    17    18 1   
    15    17     3 2   
    16    18    19 1   
    17     2     3 1   
    18     3    20 1   
    19    19    20 2   
    20    19    21 1   
    21    27     6 2   
    22     6    21 1   
    23     6    26 1   
    24    28    16 2   
    25    16     7 1   
    26    16    29 1   
    27    26     7 1   
    28    26    10 1   
    29     7     8 1   
    30    10     9 1   
    31     8    11 1   
    32     8     9 1   
    33     1    30 1   
    34     1    31 1   
    35     2    32 1   
    36     2    33 1   
    37     4    34 1   
    38     7    35 1   
    39     8    36 1   
    40     9    37 1   
    41     9    38 1   
    42    10    39 1   
    43    10    40 1   
    44    11    41 1   
    45    11    42 1   
    46    11    43 1   
    47    13    44 1   
    48    13    45 1   
    49    13    46 1   
    50    14    47 1   
    51    14    48 1   
    52    14    49 1   
    53    15    50 1   
    54    15    51 1   
    55    15    52 1   
    56    21    53 1   
    57    29    54 1   
    58    29    55 1   
    59    56    29 1   
@<TRIPOS>SUBSTRUCTURE
     1 4Q2         1 TEMP              0 ****  ****    0 ROOT
