@<TRIPOS>MOLECULE
molecule
   65    69     1     0     0
SMALL
bcc


@<TRIPOS>ATOM
      1 C15          0.0000     0.0000     0.0000 ca         1 4Q3      -0.137000
      2 C17          2.1360     0.0000    -1.2810 cc         1 4Q3      -0.024300
      3 O1           0.6080    -1.5260    -4.5150 o          1 4Q3      -0.595100
      4 C20          1.5450    -1.2960    -5.2500 c          1 4Q3       0.665100
      5 C21          1.4820    -1.7000    -6.7010 c3         1 4Q3      -0.169100
      6 N2           2.6420    -0.6770    -4.7710 ns         1 4Q3      -0.531400
      7 C19          2.7020    -0.3010    -3.4220 cd         1 4Q3       0.457200
      8 C18          1.6960    -0.5060    -2.4700 cd         1 4Q3      -0.325300
      9 N3           3.7080     0.3070    -2.8380 nc         1 4Q3      -0.552800
     10 N4           3.3820     0.5130    -1.4920 na         1 4Q3       0.078400
     11 C22          4.2300     1.1590    -0.4870 c3         1 4Q3       0.071000
     12 C24          5.4040     0.2400    -0.1430 c3         1 4Q3      -0.106100
     13 C23          4.7630     2.4810    -1.0440 c3         1 4Q3      -0.106100
     14 C16          1.3960     0.0000     0.0000 ca         1 4Q3      -0.006000
     15 C9          -0.6890     0.0060     1.2000 ca         1 4Q3       0.089600
     16 N1          -2.0890     0.0050     1.2030 nh         1 4Q3      -0.591000
     17 C14         -2.6230     1.2040     0.5070 c3         1 4Q3       0.179300
     18 C13         -4.0660     0.8150     0.1180 cx         1 4Q3      -0.171700
     19 C12         -4.8920     0.0080     1.1220 cx         1 4Q3      -0.067400
     20 C11         -4.0660    -0.7260     0.0630 cx         1 4Q3      -0.171700
     21 C10         -2.6230    -1.1400     0.4230 c3         1 4Q3       0.179300
     22 C25          2.0910     0.0000     1.2090 ca         1 4Q3      -0.137000
     23 C26          1.4010    -0.0010     2.4040 ca         1 4Q3      -0.114000
     24 C8           0.0130     0.0100     2.4070 ca         1 4Q3       0.082600
     25 N           -0.6840     0.0160     3.6210 n          1 4Q3      -0.384000
     26 C7          -1.0490    -1.2500     4.2620 c3         1 4Q3       0.102300
     27 C           -1.0190     1.1850     4.2000 c          1 4Q3       0.689700
     28 O           -0.7160     2.2360     3.6690 o          1 4Q3      -0.572100
     29 C1          -1.7540     1.1910     5.4800 ca         1 4Q3      -0.164600
     30 C6          -3.1520     1.1910     5.4880 ca         1 4Q3       0.175900
     31 F           -3.8360     1.1860     4.3240 f          1 4Q3      -0.118900
     32 C5          -3.8320     1.1960     6.6920 ca         1 4Q3      -0.173000
     33 C4          -3.1330     1.2000     7.8850 ca         1 4Q3      -0.084000
     34 C3          -1.7490     1.2010     7.8850 ca         1 4Q3      -0.142000
     35 C2          -1.0550     1.1900     6.6920 ca         1 4Q3       0.074400
     36 Cl           0.6820     1.1900     6.6950 cl         1 4Q3      -0.084400
     37 H1          -0.5420    -0.0550    -0.9360 ha         1 4Q3       0.153000
     38 H2           2.2470    -2.4400    -6.9030 hc         1 4Q3       0.064367
     39 H3           0.5070    -2.1210    -6.9160 hc         1 4Q3       0.064367
     40 H4           1.6460    -0.8310    -7.3250 hc         1 4Q3       0.064367
     41 H5           3.4230    -0.5060    -5.3720 hn         1 4Q3       0.331500
     42 H6           0.7400    -0.9860    -2.6440 ha         1 4Q3       0.196000
     43 H7           3.6490     1.3520     0.4070 h1         1 4Q3       0.082700
     44 H8           5.8590     0.5670     0.7840 hc         1 4Q3       0.049033
     45 H9           5.0460    -0.7760    -0.0310 hc         1 4Q3       0.049033
     46 H10          6.1380     0.2780    -0.9390 hc         1 4Q3       0.049033
     47 H11          5.4320     2.2800    -1.8730 hc         1 4Q3       0.049033
     48 H12          3.9350     3.0880    -1.3890 hc         1 4Q3       0.049033
     49 H13          5.3000     3.0110    -0.2670 hc         1 4Q3       0.049033
     50 H14         -2.6300     2.0560     1.1750 h1         1 4Q3       0.054950
     51 H15         -2.0390     1.4150    -0.3800 h1         1 4Q3       0.054950
     52 H16         -4.5480     1.2520    -0.7480 hc         1 4Q3       0.090200
     53 H17         -4.4970    -0.0270     2.1300 hc         1 4Q3       0.083700
     54 H18         -5.9620     0.0150     0.9570 hc         1 4Q3       0.083700
     55 H19         -4.5480    -1.1000    -0.8330 hc         1 4Q3       0.090200
     56 H20         -2.6290    -2.0380     1.0290 h1         1 4Q3       0.054950
     57 H21         -2.0380    -1.2880    -0.4770 h1         1 4Q3       0.054950
     58 H22          3.1750    -0.0040     1.2110 ha         1 4Q3       0.141000
     59 H23          1.9430     0.0010     3.3410 ha         1 4Q3       0.143000
     60 H24         -0.7640    -2.0750     3.6200 h1         1 4Q3       0.043367
     61 H25         -0.5330    -1.3360     5.2110 h1         1 4Q3       0.043367
     62 H26         -2.1190    -1.2750     4.4290 h1         1 4Q3       0.043367
     63 H27         -4.9150     1.1960     6.7010 ha         1 4Q3       0.153000
     64 H28         -3.6720     1.2070     8.8250 ha         1 4Q3       0.145000
     65 H29         -1.2090     1.2020     8.8240 ha         1 4Q3       0.151000
@<TRIPOS>BOND
     1    20    18 1
     2    20    19 1
     3    20    21 1
     4    18    19 1
     5    18    17 1
     6    21    16 1
     7    17    16 1
     8    16    15 1
     9    12    11 1
    10    36    35 1
    11    15     1 ar
    12    15    24 ar
    13     1    14 ar
    14    11    10 1
    15    11    13 1
    16    10     9 1
    17    10     2 1
    18     9     7 2
    19    26    25 1
    20     2    14 1
    21     2     8 2
    22    14    22 ar
    23    24    25 1
    24    24    23 ar
    25     7     8 1
    26     7     6 1
    27    25    27 1
    28     6     4 1
    29    35    34 ar
    30    35    29 ar
    31     4     3 2
    32     4     5 1
    33    28    27 2
    34    27    29 1
    35    34    33 ar
    36    29    30 ar
    37    22    23 ar
    38    33    32 ar
    39    30    32 ar
    40    30    31 1
    41     1    37 1
    42     5    38 1
    43     5    39 1
    44     5    40 1
    45     6    41 1
    46     8    42 1
    47    11    43 1
    48    12    44 1
    49    12    45 1
    50    12    46 1
    51    13    47 1
    52    13    48 1
    53    13    49 1
    54    17    50 1
    55    17    51 1
    56    18    52 1
    57    19    53 1
    58    19    54 1
    59    20    55 1
    60    21    56 1
    61    21    57 1
    62    22    58 1
    63    23    59 1
    64    26    60 1
    65    26    61 1
    66    26    62 1
    67    32    63 1
    68    33    64 1
    69    34    65 1
@<TRIPOS>SUBSTRUCTURE
     1 4Q3         1 TEMP              0 ****  ****    0 ROOT
