@<TRIPOS>MOLECULE
molecule
   55    59     1     0     0
SMALL
bcc


@<TRIPOS>ATOM
      1 C10          0.0000     0.0000     0.0000 ca         1 4Q7      -0.047800
      2 C11          1.3980     0.0000     0.0000 ca         1 4Q7      -0.098000
      3 C12          2.0850     0.0000     1.1950 ca         1 4Q7      -0.154500
      4 C13          1.3910     0.0000     2.3980 ca         1 4Q7       0.110100
      5 C14          0.0020     0.0000     2.4030 ca         1 4Q7      -0.154500
      6 C15         -0.6940     0.0010     1.2130 ca         1 4Q7      -0.098000
      7 C16         -1.6710    -0.4660    -3.3320 c3         1 4Q7       0.169300
      8 C17         -0.8610     0.6580    -4.0490 c3         1 4Q7      -0.061400
      9 C01          1.3230    -4.6710    -2.0890 ca         1 4Q7       0.110100
     10 C02          0.3240    -4.4070    -1.1610 ca         1 4Q7      -0.153000
     11 C03         -0.3530    -3.2060    -1.1980 ca         1 4Q7      -0.099000
     12 C04         -0.0330    -2.2550    -2.1710 ca         1 4Q7      -0.047800
     13 C05          0.9740    -2.5260    -3.1010 ca         1 4Q7      -0.099000
     14 C06          1.6500    -3.7260    -3.0530 ca         1 4Q7      -0.153000
     15 C07         -0.7540    -0.9710    -2.2150 ce         1 4Q7      -0.083400
     16 C08         -0.7390     0.0060    -1.2750 cf         1 4Q7      -0.086400
     17 C09         -1.6480     1.1170    -1.8080 c3         1 4Q7       0.193300
     18 O02          2.0720    -0.0000     3.5720 oh         1 4Q7      -0.522100
     19 C18         -0.8450     1.7760    -2.9720 c3         1 4Q7      -0.255900
     20 O03         -2.6320     0.3270    -2.5570 os         1 4Q7      -0.380600
     21 S01         -1.6830     3.2690    -3.5750 s6         1 4Q7       1.454500
     22 O04         -0.8540     3.7120    -4.7720 os         1 4Q7      -0.436800
     23 O05         -2.9500     2.9390    -4.1290 o          1 4Q7      -0.619800
     24 O06         -1.5460     4.3290    -2.6390 o          1 4Q7      -0.619800
     25 C19          0.3170     4.3170    -4.4400 ca         1 4Q7       0.056100
     26 C20          1.4970     3.5810    -4.4030 ca         1 4Q7       0.129100
     27 C21          2.6880     4.2030    -4.0650 ca         1 4Q7      -0.214000
     28 C22          2.7020     5.5520    -3.7620 ca         1 4Q7      -0.076000
     29 C23          1.5300     6.2840    -3.7970 ca         1 4Q7      -0.152000
     30 C24          0.3400     5.6700    -4.1400 ca         1 4Q7      -0.055000
     31 O07          1.4810     2.2540    -4.7010 os         1 4Q7      -0.327900
     32 C25          2.7300     1.5620    -4.6440 c3         1 4Q7       0.125700
     33 H1           1.9400    -0.0000    -0.9380 ha         1 4Q7       0.138000
     34 H2           3.1690    -0.0000     1.1960 ha         1 4Q7       0.142000
     35 H3          -0.5350     0.0010     3.3440 ha         1 4Q7       0.142000
     36 H4          -1.7780     0.0010     1.2180 ha         1 4Q7       0.138000
     37 H5          -2.1010    -1.2260    -3.9730 h1         1 4Q7       0.114700
     38 H6          -1.3710     0.9910    -4.9440 hc         1 4Q7       0.069200
     39 H7           0.1450     0.3250    -4.2750 hc         1 4Q7       0.069200
     40 H8           0.0740    -5.1450    -0.4090 ha         1 4Q7       0.142500
     41 H9          -1.1330    -3.0000    -0.4750 ha         1 4Q7       0.137000
     42 H10          1.2280    -1.7910    -3.8550 ha         1 4Q7       0.137000
     43 H11          2.4300    -3.9370    -3.7750 ha         1 4Q7       0.142500
     44 H12          2.7430    -5.7730    -1.4900 ho         1 4Q7       0.420000
     45 H13         -2.0560     1.7950    -1.0670 h1         1 4Q7       0.113700
     46 H14          2.2300     0.8880     3.8450 ho         1 4Q7       0.421000
     47 H15          0.1690     1.9990    -2.6630 h1         1 4Q7       0.113700
     48 H16          3.6080     3.6320    -4.0360 ha         1 4Q7       0.144000
     49 H17          3.6340     6.0360    -3.4950 ha         1 4Q7       0.138000
     50 H18          1.5450     7.3410    -3.5610 ha         1 4Q7       0.145000
     51 H19         -0.5780     6.2460    -4.1660 ha         1 4Q7       0.163000
     52 H20          3.4500     2.0630    -5.2800 h1         1 4Q7       0.046033
     53 H21          2.5940     0.5430    -4.9870 h1         1 4Q7       0.046033
     54 H22          3.0930     1.5540    -3.6240 h1         1 4Q7       0.046033
     55 O01          1.9880    -5.8550    -2.0480 oh         1 4Q7      -0.522100
@<TRIPOS>BOND
     1    24    21 2   
     2    30    29 ar  
     3    30    25 ar  
     4    29    28 ar  
     5    21    23 2   
     6    21    22 1   
     7    21    19 1   
     8    22    25 1   
     9    25    26 ar  
    10    28    27 ar  
    11     8    19 1   
    12     8     7 1   
    13    19    17 1   
    14    26    27 ar  
    15    26    31 1   
    16     7    20 1   
    17     7    15 1   
    18    17    20 1   
    19    17    16 1   
    20    11    10 ar  
    21    11    12 ar  
    22    31    32 1   
    23    15    16 2   
    24    15    12 1   
    25    10     9 ar  
    26    16     1 1   
    27    12    13 ar  
    28     6     1 ar  
    29     6     5 ar  
    30     1     2 ar  
    31     5     4 ar  
    32     2     3 ar  
    33     9    55 1   
    34     9    14 ar  
    35     4     3 ar  
    36     4    18 1   
    37    13    14 ar  
    38     2    33 1   
    39     3    34 1   
    40     5    35 1   
    41     6    36 1   
    42     7    37 1   
    43     8    38 1   
    44     8    39 1   
    45    10    40 1   
    46    11    41 1   
    47    13    42 1   
    48    14    43 1   
    49    55    44 1   
    50    17    45 1   
    51    18    46 1   
    52    19    47 1   
    53    27    48 1   
    54    28    49 1   
    55    29    50 1   
    56    30    51 1   
    57    32    52 1   
    58    32    53 1   
    59    32    54 1   
@<TRIPOS>SUBSTRUCTURE
     1 4Q7         1 TEMP              0 ****  ****    0 ROOT
