@<TRIPOS>MOLECULE
molecule
   54    58     1     0     0
SMALL
bcc


@<TRIPOS>ATOM
      1 O01          0.0000     0.0000     0.0000 o          1 4Q9      -0.614800
      2 S02          1.4210     0.0000     0.0000 s6         1 4Q9       1.457500
      3 C03          2.0580     0.0000     1.6980 c3         1 4Q9      -0.271900
      4 C04          1.6380     1.3010     2.4510 c3         1 4Q9       0.196300
      5 C05          2.3990     1.2560     3.7790 ce         1 4Q9      -0.082400
      6 C06          3.5500     2.0900     4.1700 ca         1 4Q9      -0.050800
      7 C07          4.7980     1.5010     4.3940 ca         1 4Q9      -0.097000
      8 C08          5.8720     2.2830     4.7590 ca         1 4Q9      -0.153500
      9 C09          5.7150     3.6560     4.9060 ca         1 4Q9       0.111100
     10 O10          6.7750     4.4240     5.2660 oh         1 4Q9      -0.521100
     11 C11          4.4760     4.2460     4.6860 ca         1 4Q9      -0.153500
     12 C12          3.3990     3.4710     4.3150 ca         1 4Q9      -0.097000
     13 C13          1.7970     0.2960     4.5220 cf         1 4Q9      -0.085400
     14 C14          2.1600    -0.1310     5.8860 ca         1 4Q9      -0.048800
     15 C15          2.0310     0.7590     6.9560 ca         1 4Q9      -0.098500
     16 C16          2.3720     0.3560     8.2290 ca         1 4Q9      -0.153000
     17 C17          2.8440    -0.9310     8.4500 ca         1 4Q9       0.109100
     18 O18          3.1780    -1.3250     9.7060 oh         1 4Q9      -0.521100
     19 C19          2.9740    -1.8190     7.3890 ca         1 4Q9      -0.153000
     20 C20          2.6310    -1.4270     6.1130 ca         1 4Q9      -0.098500
     21 C21          0.6620    -0.2580     3.6560 c3         1 4Q9       0.173300
     22 O22          0.2870     0.9430     2.9000 os         1 4Q9      -0.379600
     23 C23          1.3690    -1.1000     2.5490 c3         1 4Q9      -0.073400
     24 O24          1.7960    -1.3700    -0.5460 os         1 4Q9      -0.450800
     25 C25          3.1130    -1.5010    -0.8530 ca         1 4Q9       0.086100
     26 C26          4.0230    -1.8650     0.1300 ca         1 4Q9      -0.148000
     27 C27          5.3620    -1.9970    -0.1840 ca         1 4Q9      -0.121000
     28 C28          5.7950    -1.7700    -1.4780 ca         1 4Q9      -0.110000
     29 C29          4.8900    -1.4080    -2.4590 ca         1 4Q9      -0.115000
     30 C30          3.5500    -1.2800    -2.1510 ca         1 4Q9      -0.039300
     31 C31          2.5640    -0.8930    -3.2230 c3         1 4Q9      -0.058800
     32 O32          2.1540     0.9120    -0.8070 o          1 4Q9      -0.614800
     33 H1           3.1350    -0.1220     1.7090 h1         1 4Q9       0.115700
     34 H2           1.7170     2.2230     1.8880 h1         1 4Q9       0.117700
     35 H3           4.9210     0.4310     4.2790 ha         1 4Q9       0.139000
     36 H4           6.8390     1.8280     4.9320 ha         1 4Q9       0.143500
     37 H5           6.8260     4.4690     6.2060 ho         1 4Q9       0.420000
     38 H6           4.3590     5.3170     4.8000 ha         1 4Q9       0.143500
     39 H7           2.4330     3.9320     4.1430 ha         1 4Q9       0.139000
     40 H8           1.6630     1.7640     6.7860 ha         1 4Q9       0.138000
     41 H9           2.2730     1.0440     9.0590 ha         1 4Q9       0.143000
     42 H10          4.0870    -1.1300     9.8660 ho         1 4Q9       0.420000
     43 H11          3.3410    -2.8220     7.5660 ha         1 4Q9       0.143000
     44 H12          2.7330    -2.1200     5.2870 ha         1 4Q9       0.138000
     45 H13         -0.1450    -0.7490     4.1860 h1         1 4Q9       0.116700
     46 H16          2.1020    -1.7700     2.9820 hc         1 4Q9       0.066200
     47 H17          0.6430    -1.6470     1.9590 hc         1 4Q9       0.066200
     48 H18          3.6830    -2.0430     1.1440 ha         1 4Q9       0.138000
     49 H19          6.0720    -2.2810     0.5820 ha         1 4Q9       0.138000
     50 H20          6.8450    -1.8720    -1.7220 ha         1 4Q9       0.137000
     51 H21          5.2320    -1.2320    -3.4720 ha         1 4Q9       0.143000
     52 H22          1.5880    -1.2930    -2.9770 hc         1 4Q9       0.058367
     53 H23          2.5060     0.1870    -3.2870 hc         1 4Q9       0.058367
     54 H24          2.8890    -1.2940    -4.1750 hc         1 4Q9       0.058367
@<TRIPOS>BOND
     1     1     2 2   
     2     2     3 1   
     3     2    24 1   
     4     2    32 2   
     5     3     4 1   
     6     3    23 1   
     7     4     5 1   
     8     5     6 1   
     9     5    13 2   
    10     6     7 ar  
    11     6    12 ar  
    12     7     8 ar  
    13     8     9 ar  
    14     9    10 1   
    15     9    11 ar  
    16    11    12 ar  
    17    13    14 1   
    18    13    21 1   
    19    14    15 ar  
    20    14    20 ar  
    21    15    16 ar  
    22    16    17 ar  
    23    17    18 1   
    24    17    19 ar  
    25    19    20 ar  
    26    21    23 1   
    27    24    25 1   
    28    25    26 ar  
    29    25    30 ar  
    30    26    27 ar  
    31    27    28 ar  
    32    28    29 ar  
    33    29    30 ar  
    34    30    31 1   
    35     4    22 1   
    36     3    33 1   
    37     4    34 1   
    38     7    35 1   
    39     8    36 1   
    40    10    37 1   
    41    11    38 1   
    42    12    39 1   
    43    15    40 1   
    44    16    41 1   
    45    18    42 1   
    46    19    43 1   
    47    20    44 1   
    48    21    45 1   
    49    23    46 1   
    50    23    47 1   
    51    26    48 1   
    52    27    49 1   
    53    28    50 1   
    54    29    51 1   
    55    31    52 1   
    56    31    53 1   
    57    31    54 1   
    58    22    21 1   
@<TRIPOS>SUBSTRUCTURE
     1 4Q9         1 TEMP              0 ****  ****    0 ROOT
