@<TRIPOS>MOLECULE
4QA
   73    77     1     0     0
SMALL
bcc


@<TRIPOS>ATOM
      1 C1           0.0000     0.0000     0.0000 c3         1 4QA      -0.090900
      2 C3           0.8210     0.0000     2.0900 c          1 4QA       0.747900
      3 C5           1.5110     0.0000     0.0000 c2         1 4QA       0.490200
      4 C6          -0.5360    -1.2530    -0.6850 c3         1 4QA      -0.011900
      5 N2          -0.3520     0.0010     1.4250 n          1 4QA      -0.029000
      6 N4           1.8700     0.0000     1.2610 ne         1 4QA      -0.684100
      7 C7          -2.0660    -1.2120    -0.6900 c3         1 4QA       0.007800
      8 N8          -2.5200     0.0010    -1.3830 n3         1 4QA      -0.511600
      9 C9          -2.0660     1.2130    -0.6910 c3         1 4QA       0.007800
     10 C10         -0.5350     1.2540    -0.6840 c3         1 4QA      -0.011900
     11 O11          0.9140    -0.0000     3.3040 o          1 4QA      -0.655500
     12 N12          2.3250    -0.0010    -1.0780 nu         1 4QA      -0.361200
     13 C13         -1.6380     0.0000     1.9790 ca         1 4QA       0.019600
     14 C14          3.7790    -0.0020    -0.8990 c3         1 4QA       0.114500
     15 C15          4.2690    -1.4390    -0.7100 c3         1 4QA      -0.038900
     16 C16          5.7880    -1.4390    -0.5220 c3         1 4QA      -0.016900
     17 C17          6.4550    -0.8300    -1.7570 c3         1 4QA      -0.029400
     18 C18          5.9640     0.6070    -1.9450 c3         1 4QA      -0.016900
     19 C19          4.4460     0.6080    -2.1340 c3         1 4QA      -0.038900
     20 C20         -2.7520     0.0010     1.1490 ca         1 4QA      -0.401000
     21 C21         -4.0190     0.0000     1.6970 ca         1 4QA      -0.053000
     22 C22         -4.1810     0.0000     3.0700 ca         1 4QA      -0.168000
     23 C23         -3.0730     0.0010     3.9000 ca         1 4QA       0.144900
     24 C24         -1.8010    -0.0050     3.3570 ca         1 4QA      -0.186000
     25 F25         -3.2350     0.0010     5.2420 f          1 4QA      -0.125900
     26 C26         -3.9810     0.0010    -1.5420 c3         1 4QA       0.181100
     27 C27         -4.3720     1.0140    -2.5860 ca         1 4QA      -0.054300
     28 C28         -4.6390     2.3190    -2.2160 ca         1 4QA      -0.149000
     29 C29         -4.9930     3.2530    -3.1720 ca         1 4QA      -0.052000
     30 C30         -5.0820     2.8830    -4.5000 ca         1 4QA      -0.216000
     31 C31         -4.8160     1.5730    -4.8740 ca         1 4QA       0.157100
     32 C32         -4.4600     0.6390    -3.9120 ca         1 4QA      -0.124000
     33 O33         -4.9020     1.2070    -6.1800 os         1 4QA      -0.299900
     34 C34         -5.1830     2.2410    -7.1260 c3         1 4QA       0.161100
     35 C35         -3.8840     2.9540    -7.5040 c3         1 4QA      -0.016600
     36 C36         -5.8110     1.6270    -8.3790 c3         1 4QA      -0.016600
     37 H1          -0.2000    -2.1300    -0.1440 hc         1 4QA       0.032200
     38 H2          -0.1730    -1.2890    -1.7050 hc         1 4QA       0.032200
     39 H3          -2.4300    -1.2010     0.3310 h1         1 4QA       0.082700
     40 H4          -2.4480    -2.0850    -1.2050 h1         1 4QA       0.082700
     41 H6          -2.4300     1.2020     0.3290 h1         1 4QA       0.082700
     42 H7          -2.4470     2.0850    -1.2070 h1         1 4QA       0.082700
     43 H8          -0.1710     1.2900    -1.7040 hc         1 4QA       0.032200
     44 H9          -0.2000     2.1300    -0.1430 hc         1 4QA       0.032200
     45 H10          1.9350    -0.0000    -2.0000 hn         1 4QA       0.293800
     46 H11          4.0400     0.5830    -0.0250 h1         1 4QA       0.071700
     47 H12          3.7980    -1.8670     0.1670 hc         1 4QA       0.021700
     48 H13          4.0150    -2.0240    -1.5860 hc         1 4QA       0.021700
     49 H14          6.0420    -0.8500     0.3510 hc         1 4QA       0.019700
     50 H15          6.1340    -2.4570    -0.3910 hc         1 4QA       0.019700
     51 H16          6.1960    -1.4160    -2.6310 hc         1 4QA       0.015700
     52 H17          7.5290    -0.8280    -1.6220 hc         1 4QA       0.015700
     53 H18          6.2180     1.1910    -1.0690 hc         1 4QA       0.019700
     54 H19          6.4350     1.0360    -2.8210 hc         1 4QA       0.019700
     55 H20          4.1000     1.6260    -2.2630 hc         1 4QA       0.021700
     56 H21          4.1910     0.0200    -3.0070 hc         1 4QA       0.021700
     57 H22         -2.6270     0.0010     0.0730 ha         1 4QA       0.267000
     58 H23         -4.8880     0.0010     1.0500 ha         1 4QA       0.111000
     59 H24         -5.1770     0.0020     3.4970 ha         1 4QA       0.120000
     60 H25         -0.9340    -0.0050     4.0070 ha         1 4QA       0.184000
     61 H26         -4.4460     0.2570    -0.5970 h1         1 4QA       0.031200
     62 H27         -4.3110    -0.9830    -1.8520 h1         1 4QA       0.031200
     63 H28         -4.5690     2.6120    -1.1750 ha         1 4QA       0.111000
     64 H29         -5.2010     4.2750    -2.8800 ha         1 4QA       0.102000
     65 H30         -5.3590     3.6150    -5.2490 ha         1 4QA       0.127000
     66 H31         -4.2520    -0.3840    -4.2020 ha         1 4QA       0.121000
     67 H32         -5.8730     2.9530    -6.6890 h1         1 4QA       0.021700
     68 H33         -4.0220     3.4870    -8.4370 hc         1 4QA       0.013367
     69 H34         -3.0910     2.2260    -7.6190 hc         1 4QA       0.013367
     70 H35         -3.6180     3.6570    -6.7230 hc         1 4QA       0.013367
     71 H36         -6.0660     2.4140    -9.0790 hc         1 4QA       0.013367
     72 H37         -5.1050     0.9480    -8.8420 hc         1 4QA       0.013367
     73 H38         -6.7070     1.0830    -8.1060 hc         1 4QA       0.013367
@<TRIPOS>BOND
     1     1     3 1   
     2     1     4 1   
     3     1     5 1   
     4     1    10 1   
     5     2     5 1   
     6     2     6 1   
     7     2    11 2   
     8     3     6 2   
     9     3    12 1   
    10     4     7 1   
    11     4    37 1   
    12     4    38 1   
    13     5    13 1   
    14     7     8 1   
    15     7    39 1   
    16     7    40 1   
    17     8     9 1   
    18     8    26 1   
    19     9    10 1   
    20     9    41 1   
    21     9    42 1   
    22    10    43 1   
    23    10    44 1   
    24    12    14 1   
    25    12    45 1   
    26    13    20 ar  
    27    13    24 ar  
    28    14    15 1   
    29    14    19 1   
    30    14    46 1   
    31    15    16 1   
    32    15    47 1   
    33    15    48 1   
    34    16    17 1   
    35    16    49 1   
    36    16    50 1   
    37    17    18 1   
    38    17    51 1   
    39    17    52 1   
    40    18    19 1   
    41    18    53 1   
    42    18    54 1   
    43    19    55 1   
    44    19    56 1   
    45    20    21 ar  
    46    20    57 1   
    47    21    22 ar  
    48    21    58 1   
    49    22    23 ar  
    50    22    59 1   
    51    23    24 ar  
    52    23    25 1   
    53    24    60 1   
    54    26    27 1   
    55    26    61 1   
    56    26    62 1   
    57    27    28 ar  
    58    27    32 ar  
    59    28    29 ar  
    60    28    63 1   
    61    29    30 ar  
    62    29    64 1   
    63    30    31 ar  
    64    30    65 1   
    65    31    32 ar  
    66    31    33 1   
    67    32    66 1   
    68    33    34 1   
    69    34    35 1   
    70    34    36 1   
    71    34    67 1   
    72    35    68 1   
    73    35    69 1   
    74    35    70 1   
    75    36    71 1   
    76    36    72 1   
    77    36    73 1   
@<TRIPOS>SUBSTRUCTURE
     1 4QA         1 TEMP              0 ****  ****    0 ROOT
