@<TRIPOS>MOLECULE
molecule
   67    69     1     0     0
SMALL
bcc


@<TRIPOS>ATOM
      1 O37          0.0000     0.0000     0.0000 o          1 4QB      -0.837300
      2 C6           1.2510     0.0000     0.0000 c          1 4QB       0.909600
      3 O35          1.9220     0.0000     1.0540 o          1 4QB      -0.837300
      4 C7           1.9950     0.0040    -1.3160 c3         1 4QB      -0.202400
      5 C28          1.0800    -0.4210    -2.4640 c3         1 4QB      -0.002300
      6 C18          1.5190     0.2690    -3.7330 c          1 4QB       0.557900
      7 O33          1.1710     1.4210    -3.9420 o          1 4QB      -0.544100
      8 N5           1.0790    -1.8680    -2.5860 ns         1 4QB      -0.544900
      9 C16          0.0580    -2.5710    -3.0830 c          1 4QB       0.667100
     10 O34         -1.0230    -2.0800    -3.3770 o          1 4QB      -0.614100
     11 C10          0.3310    -4.0390    -3.2750 c3         1 4QB      -0.149700
     12 C9          -0.0060    -4.4730    -4.7010 c3         1 4QB      -0.076400
     13 C31          1.2400    -4.4680    -5.5550 c3         1 4QB      -0.093100
     14 C11         -0.4050    -4.8730    -2.2150 c3         1 4QB      -0.063400
     15 C12         -1.8320    -5.2760    -2.5810 c3         1 4QB      -0.079400
     16 C13         -2.4610    -6.1410    -1.4930 c3         1 4QB      -0.097400
     17 C14         -2.3920    -7.6270    -1.8300 c3         1 4QB       0.104000
     18 N4          -1.6100    -8.3790    -0.8630 ns         1 4QB      -0.564900
     19 C19         -1.0640    -9.5680    -1.1350 c          1 4QB       0.673700
     20 O36         -1.2040   -10.1060    -2.2250 o          1 4QB      -0.623100
     21 C17         -0.2660   -10.2730    -0.0670 ca         1 4QB      -0.174600
     22 C20         -0.2540   -11.6660    -0.0140 ca         1 4QB      -0.061000
     23 C21          0.4760   -12.3280     0.9750 ca         1 4QB      -0.189000
     24 C22          1.1890   -11.6080     1.9340 ca         1 4QB       0.183600
     25 C23          1.1710   -10.2090     1.8830 ca         1 4QB      -0.189000
     26 C24          0.4460    -9.5470     0.8890 ca         1 4QB      -0.061000
     27 N3           1.8730   -12.3200     2.8780 nu         1 4QB      -0.734300
     28 C26          2.6170   -11.8630     3.9290 ca         1 4QB       0.573900
     29 N1           2.5150   -10.6060     4.3960 nb         1 4QB      -0.719000
     30 C27          3.4750   -12.7540     4.5750 ca         1 4QB       0.258900
     31 N2           4.2060   -12.3530     5.6250 nb         1 4QB      -0.615000
     32 C29          4.1020   -11.0970     6.0830 ca         1 4QB       0.259300
     33 C25          4.8560   -10.6850     7.1830 ca         1 4QB      -0.148300
     34 C8           4.7450    -9.3760     7.6560 ca         1 4QB      -0.138000
     35 C30          3.2420   -10.2020     5.4510 ca         1 4QB       0.354300
     36 C15          3.1270    -8.8960     5.9270 ca         1 4QB      -0.176300
     37 C32          3.8790    -8.4810     7.0270 ca         1 4QB      -0.102000
     38 H71          2.8300    -0.6830    -1.2550 hc         1 4QB       0.037200
     39 H72          2.3680     1.0020    -1.5110 hc         1 4QB       0.037200
     40 H28          0.0720    -0.0990    -2.2330 h1         1 4QB       0.147700
     41 H18          2.0210    -0.2950    -4.5100 h4         1 4QB      -0.033800
     42 HN5          1.8910    -2.3670    -2.2810 hn         1 4QB       0.305500
     43 H10          1.3930    -4.1940    -3.1310 hc         1 4QB       0.043700
     44 H91         -0.7320    -3.7880    -5.1230 hc         1 4QB       0.054200
     45 H92         -0.4250    -5.4720    -4.6830 hc         1 4QB       0.054200
     46 H311         1.6160    -3.4560    -5.6400 hc         1 4QB       0.030033
     47 H312         1.9950    -5.0960    -5.0960 hc         1 4QB       0.030033
     48 H313         1.0040    -4.8500    -6.5410 hc         1 4QB       0.030033
     49 H111         0.1670    -5.7760    -2.0370 hc         1 4QB       0.046200
     50 H112        -0.4380    -4.3020    -1.2960 hc         1 4QB       0.046200
     51 H121        -2.4300    -4.3820    -2.7120 hc         1 4QB       0.055700
     52 H122        -1.8170    -5.8310    -3.5110 hc         1 4QB       0.055700
     53 H131        -1.9370    -5.9680    -0.5600 hc         1 4QB       0.049200
     54 H132        -3.4980    -5.8550    -1.3720 hc         1 4QB       0.049200
     55 H141        -3.3990    -8.0270    -1.8540 h1         1 4QB       0.051200
     56 H142        -1.9450    -7.7440    -2.8100 h1         1 4QB       0.051200
     57 HN4         -1.4750    -7.9900     0.0490 hn         1 4QB       0.313500
     58 H20         -0.8030   -12.2390    -0.7520 ha         1 4QB       0.145500
     59 H21          0.4800   -13.4110     1.0040 ha         1 4QB       0.149000
     60 H23          1.7200    -9.6370     2.6210 ha         1 4QB       0.149000
     61 H24          0.4390    -8.4640     0.8600 ha         1 4QB       0.145500
     62 HN3          1.8210   -13.3160     2.7880 hn         1 4QB       0.443800
     63 H27          3.5510   -13.7770     4.2250 h4         1 4QB       0.026100
     64 H25          5.5280   -11.3810     7.6700 ha         1 4QB       0.146000
     65 H8           5.3300    -9.0560     8.5100 ha         1 4QB       0.137000
     66 H15          2.4540    -8.2010     5.4400 ha         1 4QB       0.156000
     67 H32          3.7910    -7.4640     7.3920 ha         1 4QB       0.143000
@<TRIPOS>BOND
     1     1     2 1
     2     2     3 1
     3     2     4 1
     4     4     5 1
     5     4    38 1
     6     4    39 1
     7     5     6 1
     8     5     8 1
     9     5    40 1
    10     6     7 2
    11     6    41 1
    12     8     9 1
    13     8    42 1
    14     9    10 2
    15     9    11 1
    16    11    12 1
    17    11    14 1
    18    11    43 1
    19    12    13 1
    20    12    44 1
    21    12    45 1
    22    13    46 1
    23    13    47 1
    24    13    48 1
    25    14    15 1
    26    14    49 1
    27    14    50 1
    28    15    16 1
    29    15    51 1
    30    15    52 1
    31    16    17 1
    32    16    53 1
    33    16    54 1
    34    17    18 1
    35    17    55 1
    36    17    56 1
    37    18    19 1
    38    18    57 1
    39    19    20 2
    40    19    21 1
    41    21    22 ar
    42    21    26 ar
    43    22    23 ar
    44    22    58 1
    45    23    24 ar
    46    23    59 1
    47    24    25 ar
    48    24    27 1
    49    25    26 ar
    50    25    60 1
    51    26    61 1
    52    27    28 1
    53    27    62 1
    54    28    29 ar
    55    28    30 ar
    56    29    35 ar
    57    30    31 ar
    58    30    63 1
    59    31    32 ar
    60    32    33 ar
    61    32    35 ar
    62    33    34 ar
    63    33    64 1
    64    34    37 ar
    65    34    65 1
    66    35    36 ar
    67    36    37 ar
    68    36    66 1
    69    37    67 1
@<TRIPOS>SUBSTRUCTURE
     1 4QB         1 TEMP              0 ****  ****    0 ROOT
