@<TRIPOS>MOLECULE
molecule
   66    70     1     0     0
SMALL
bcc


@<TRIPOS>ATOM
      1 C1           0.0000     0.0000     0.0000 ca         1 4QC      -0.213600
      2 C2          -0.7410    -0.0010    -1.2790 c          1 4QC       0.509700
      3 C3           2.0860     0.0000     1.1960 ca         1 4QC      -0.099000
      4 C7          -2.2010     0.4830     5.1620 cc         1 4QC       0.277600
      5 C8          -1.2950    -0.3990     5.7110 cc         1 4QC      -0.210600
      6 C9          -0.3520    -0.6990     4.7320 cd         1 4QC      -0.134900
      7 C10         -3.3980     1.0680     5.8670 c3         1 4QC       0.616600
      8 C11          3.8180    -6.2430     9.7070 c3         1 4QC       0.172100
      9 C12         -0.5310    -2.3680     6.9890 c3         1 4QC       0.109000
     10 C13          0.7450    -1.6380     5.0110 c          1 4QC       0.746100
     11 C14          1.7990    -3.0400     6.5990 ca         1 4QC       0.021600
     12 C15          1.7640    -4.4280     6.6620 ca         1 4QC      -0.120000
     13 C16          2.8750    -5.1290     7.0810 ca         1 4QC      -0.105000
     14 C19          2.9520    -2.3550     6.9640 ca         1 4QC      -0.120000
     15 C20          2.1820    -5.2270    11.0650 c3         1 4QC       0.121600
     16 C21          6.4480    -5.0260     7.2580 ca         1 4QC      -0.116000
     17 C22          7.5560    -5.7270     7.6870 ca         1 4QC      -0.127000
     18 C24         -1.2180    -1.0050     7.0880 c3         1 4QC      -0.033100
     19 C27          5.2250    -5.1940     7.9080 cp         1 4QC      -0.035000
     20 F           -4.1460     1.8310     4.9640 f          1 4QC      -0.204967
     21 F1          -4.1920     0.0330     6.3740 f          1 4QC      -0.204967
     22 F2          -2.9660     1.8830     6.9190 f          1 4QC      -0.204967
     23 O1           1.6690    -1.7890     4.2340 o          1 4QC      -0.642500
     24 N2          -0.6820     0.0020     3.6230 na         1 4QC       0.178300
     25 N3          -1.8470     0.7310     3.9180 nd         1 4QC      -0.444800
     26 N4           0.6730    -2.3330     6.1700 n          1 4QC      -0.372000
     27 C            1.3970     0.0000     0.0000 ca         1 4QC      -0.115000
     28 C4           1.4000     0.0000     2.3950 ca         1 4QC      -0.023000
     29 C5           0.0090     0.0010     2.4060 ca         1 4QC       0.032800
     30 C6          -0.6920    -0.0050     1.2100 ca         1 4QC      -0.021000
     31 C17          4.0300    -4.4430     7.4520 cp         1 4QC       0.001000
     32 C18          4.0640    -3.0510     7.3880 ca         1 4QC      -0.105000
     33 C25          5.1340    -6.0610     8.9950 ca         1 4QC      -0.064300
     34 N7           3.5390    -5.0580    10.5290 n3         1 4QC      -0.666600
     35 C23          4.4550    -5.1140    11.6760 c3         1 4QC       0.121600
     36 O2          -1.9570    -0.0000    -1.2780 o          1 4QC      -0.415100
     37 N1          -0.0680    -0.0000    -2.4480 nz         1 4QC      -0.678400
     38 C28          7.4570    -6.5920     8.7630 ca         1 4QC      -0.119000
     39 C29          6.2490    -6.7580     9.4150 ca         1 4QC      -0.123000
     40 H3           3.1690    -0.0000     1.1940 ha         1 4QC       0.171000
     41 H111         3.8680    -7.1190    10.3410 h1         1 4QC       0.045700
     42 H112         3.0270    -6.3700     8.9770 h1         1 4QC       0.045700
     43 H121        -0.2360    -2.6570     7.9910 h1         1 4QC       0.069700
     44 H122        -1.2270    -3.0510     6.5170 h1         1 4QC       0.069700
     45 H15          0.8650    -4.9600     6.3750 ha         1 4QC       0.135000
     46 H16          2.8470    -6.2100     7.1290 ha         1 4QC       0.144500
     47 H19          2.9770    -1.2730     6.9150 ha         1 4QC       0.135000
     48 H201         1.8690    -4.3100    11.5520 h1         1 4QC       0.036867
     49 H202         1.4990    -5.4570    10.2560 h1         1 4QC       0.036867
     50 H203         2.1750    -6.0370    11.7840 h1         1 4QC       0.036867
     51 H21          6.5260    -4.3490     6.4160 ha         1 4QC       0.133000
     52 H22          8.5060    -5.5990     7.1820 ha         1 4QC       0.134000
     53 H241        -2.2180    -1.1320     7.4840 hc         1 4QC       0.081700
     54 H242        -0.6440    -0.3560     7.7370 hc         1 4QC       0.081700
     55 H            1.9390    -0.0000    -0.9380 ha         1 4QC       0.111000
     56 H4           1.9470     0.0000     3.3300 ha         1 4QC       0.200000
     57 H6          -1.7730    -0.0880     1.2160 ha         1 4QC       0.186000
     58 H18          4.9610    -2.5170     7.6740 ha         1 4QC       0.144500
     59 H231         4.0880    -4.4680    12.4640 h1         1 4QC       0.036867
     60 H232         5.4400    -4.7830    11.3680 h1         1 4QC       0.036867
     61 H233         4.5150    -6.1320    12.0410 h1         1 4QC       0.036867
     62 HN11         0.5060    -0.8180    -2.5030 hn         1 4QC       0.478133
     63 HN12        -0.7200     0.0010    -3.2080 hn         1 4QC       0.478133
     64 H28          8.3300    -7.1400     9.0960 ha         1 4QC       0.135000
     65 H29          6.1780    -7.4360    10.2570 ha         1 4QC       0.135000
     66 H13          0.5110     0.8140    -2.4990 hn         1 4QC       0.478133
@<TRIPOS>BOND
     1     1     2 1   
     2     1    27 ar  
     3     1    30 ar  
     4     2    36 2   
     5     2    37 1   
     6     3    27 ar  
     7     3    28 ar  
     8     3    40 1   
     9     4     5 1   
    10     4     7 1   
    11     4    25 2   
    12     5     6 2   
    13     5    18 1   
    14     6    10 1   
    15     6    24 1   
    16     7    20 1   
    17     7    21 1   
    18     7    22 1   
    19     8    33 1   
    20     8    34 1   
    21     8    41 1   
    22     8    42 1   
    23     9    18 1   
    24     9    26 1   
    25     9    43 1   
    26     9    44 1   
    27    10    23 2   
    28    10    26 1   
    29    11    12 ar  
    30    11    14 ar  
    31    11    26 1   
    32    12    13 ar  
    33    12    45 1   
    34    13    31 ar  
    35    13    46 1   
    36    14    32 ar  
    37    14    47 1   
    38    15    34 1   
    39    15    48 1   
    40    15    49 1   
    41    15    50 1   
    42    16    17 ar  
    43    16    19 ar  
    44    16    51 1   
    45    17    38 ar  
    46    17    52 1   
    47    18    53 1   
    48    18    54 1   
    49    19    31 1   
    50    19    33 ar  
    51    24    25 1   
    52    24    29 1   
    53    27    55 1   
    54    28    29 ar  
    55    28    56 1   
    56    29    30 ar  
    57    30    57 1   
    58    31    32 ar  
    59    32    58 1   
    60    33    39 ar  
    61    34    35 1   
    62    35    59 1   
    63    35    60 1   
    64    35    61 1   
    65    37    62 1   
    66    37    63 1   
    67    38    39 ar  
    68    38    64 1   
    69    39    65 1   
    70    66    37 1   
@<TRIPOS>SUBSTRUCTURE
     1 4QC         1 TEMP              0 ****  ****    0 ROOT
