@<TRIPOS>MOLECULE
4QD
   76    80     1     0     0
SMALL
bcc


@<TRIPOS>ATOM
      1 C1           0.0000     0.0000     0.0000 c3         1 4QD      -0.089900
      2 N2           1.4690     0.0000     0.0000 n          1 4QD      -0.033000
      3 C3           1.8320     0.0000     1.2990 c          1 4QD       0.746900
      4 N4           0.7750    -0.0010     2.1170 ne         1 4QD      -0.672100
      5 C5          -0.3620    -0.0000     1.4660 c2         1 4QD       0.487200
      6 C6          -0.5350     1.2540    -0.6830 c3         1 4QD      -0.010900
      7 C7          -0.1730     1.2140    -2.1710 c3         1 4QD       0.004800
      8 N8          -0.7380     0.0020    -2.7790 n3         1 4QD      -0.517600
      9 C9          -0.1740    -1.2110    -2.1730 c3         1 4QD       0.004800
     10 C10         -0.5360    -1.2520    -0.6860 c3         1 4QD      -0.010900
     11 O11          2.9880    -0.0010     1.6810 o          1 4QD      -0.641500
     12 N12         -1.6040    -0.0000     1.9980 nu         1 4QD      -0.361200
     13 C13          2.3140    -0.0000    -1.1140 ca         1 4QD       0.026600
     14 C14         -1.7790    -0.0020     3.4530 c3         1 4QD       0.114500
     15 C15         -1.7150     1.4350     3.9750 c3         1 4QD      -0.038900
     16 C16         -1.8960     1.4340     5.4940 c3         1 4QD      -0.016400
     17 C17         -3.2550     0.8250     5.8440 c3         1 4QD      -0.029400
     18 C18         -3.3200    -0.6120     5.3220 c3         1 4QD      -0.016400
     19 C19         -3.1380    -0.6110     3.8030 c3         1 4QD      -0.038900
     20 C20          1.7770     0.0010    -2.3960 ca         1 4QD      -0.417000
     21 C21          2.6120     0.0010    -3.4960 ca         1 4QD      -0.054000
     22 C22          3.9840     0.0000    -3.3230 ca         1 4QD      -0.167000
     23 C23          4.5240    -0.0010    -2.0480 ca         1 4QD       0.158900
     24 C24          3.6920     0.0040    -0.9430 ca         1 4QD      -0.183000
     25 F25          5.8660    -0.0020    -1.8820 f          1 4QD      -0.119900
     26 C26         -0.5400     0.0030    -4.2350 c3         1 4QD       0.175100
     27 C27         -1.4610    -1.0100    -4.8670 ca         1 4QD      -0.035300
     28 C28         -1.0380    -2.3150    -5.0370 ca         1 4QD      -0.111000
     29 C29         -1.8810    -3.2490    -5.6120 ca         1 4QD      -0.040000
     30 C30         -3.1480    -2.8790    -6.0170 ca         1 4QD      -0.212000
     31 C31         -3.5760    -1.5690    -5.8470 ca         1 4QD       0.104100
     32 C32         -2.7280    -0.6360    -5.2700 ca         1 4QD      -0.104000
     33 O33         -4.8230    -1.2030    -6.2450 os         1 4QD      -0.331900
     34 C34         -5.6730    -2.2350    -6.7460 c3         1 4QD       0.149100
     35 C35         -6.7390    -1.6210    -7.6560 c3         1 4QD      -0.051200
     36 C36         -6.3520    -2.9500    -5.5750 c3         1 4QD      -0.019100
     37 N37         -6.0950    -1.0390    -8.8410 nz         1 4QD       0.086400
     38 H1          -1.6130     1.2910    -0.5760 hc         1 4QD       0.033700
     39 H2          -0.0910     2.1310    -0.2280 hc         1 4QD       0.033700
     40 H3          -0.5820     2.0880    -2.6640 h1         1 4QD       0.083450
     41 H4           0.9050     1.2030    -2.2790 h1         1 4QD       0.083450
     42 H6          -0.5830    -2.0840    -2.6670 h1         1 4QD       0.083450
     43 H7           0.9040    -1.2000    -2.2810 h1         1 4QD       0.083450
     44 H8          -1.6130    -1.2890    -0.5780 hc         1 4QD       0.033700
     45 H9          -0.0920    -2.1300    -0.2310 hc         1 4QD       0.033700
     46 H10         -2.4050    -0.0000     1.3980 hn         1 4QD       0.288800
     47 H11         -0.9930    -0.5870     3.9150 h1         1 4QD       0.073700
     48 H12         -0.7510     1.8650     3.7290 hc         1 4QD       0.019950
     49 H13         -2.5040     2.0200     3.5190 hc         1 4QD       0.019950
     50 H14         -1.8530     2.4520     5.8620 hc         1 4QD       0.021700
     51 H15         -1.1100     0.8450     5.9500 hc         1 4QD       0.021700
     52 H16         -4.0420     1.4110     5.3840 hc         1 4QD       0.017200
     53 H17         -3.3810     0.8220     6.9200 hc         1 4QD       0.017200
     54 H18         -2.5300    -1.1970     5.7780 hc         1 4QD       0.021700
     55 H19         -4.2830    -1.0420     5.5680 hc         1 4QD       0.021700
     56 H20         -3.9240    -0.0220     3.3470 hc         1 4QD       0.019950
     57 H21         -3.1810    -1.6290     3.4350 hc         1 4QD       0.019950
     58 H22          0.7020     0.0020    -2.5320 ha         1 4QD       0.260000
     59 H23          2.1920     0.0030    -4.4940 ha         1 4QD       0.102000
     60 H24          4.6380    -0.0020    -4.1870 ha         1 4QD       0.123000
     61 H25          4.1140     0.0030     0.0550 ha         1 4QD       0.188000
     62 H26         -0.7620     0.9880    -4.6290 h1         1 4QD       0.037200
     63 H27          0.4880    -0.2530    -4.4600 h1         1 4QD       0.037200
     64 H28         -0.0440    -2.6070    -4.7210 ha         1 4QD       0.126000
     65 H29         -1.5470    -4.2710    -5.7440 ha         1 4QD       0.116000
     66 H30         -3.8090    -3.6100    -6.4670 ha         1 4QD       0.112000
     67 H31         -3.0590     0.3870    -5.1370 ha         1 4QD       0.123000
     68 H32         -5.0820    -2.9460    -7.3100 h1         1 4QD       0.039700
     69 H33         -7.4360    -2.3900    -7.9650 hx         1 4QD       0.092700
     70 H34         -7.2710    -0.8460    -7.1180 hx         1 4QD       0.092700
     71 H35         -6.0270    -2.5050    -4.6430 hc         1 4QD       0.034367
     72 H36         -7.4270    -2.8510    -5.6670 hc         1 4QD       0.034367
     73 H37         -6.0830    -3.9990    -5.5890 hc         1 4QD       0.034367
     74 H38         -5.4010    -1.6720    -9.1880 hn         1 4QD       0.226133
     75 H39         -6.7830    -0.8790    -9.5500 hn         1 4QD       0.226133
     76 H373        -5.6640    -0.1710    -8.5930 hn         1 4QD       0.226133
@<TRIPOS>BOND
     1     1     2 1   
     2     1     5 1   
     3     1     6 1   
     4     1    10 1   
     5     2     3 1   
     6     2    13 1   
     7     3     4 1   
     8     3    11 2   
     9     4     5 2   
    10     5    12 1   
    11     6     7 1   
    12     6    38 1   
    13     6    39 1   
    14     7     8 1   
    15     7    40 1   
    16     7    41 1   
    17     8     9 1   
    18     8    26 1   
    19     9    10 1   
    20     9    42 1   
    21     9    43 1   
    22    10    44 1   
    23    10    45 1   
    24    12    14 1   
    25    12    46 1   
    26    13    20 ar  
    27    13    24 ar  
    28    14    15 1   
    29    14    19 1   
    30    14    47 1   
    31    15    16 1   
    32    15    48 1   
    33    15    49 1   
    34    16    17 1   
    35    16    50 1   
    36    16    51 1   
    37    17    18 1   
    38    17    52 1   
    39    17    53 1   
    40    18    19 1   
    41    18    54 1   
    42    18    55 1   
    43    19    56 1   
    44    19    57 1   
    45    20    21 ar  
    46    20    58 1   
    47    21    22 ar  
    48    21    59 1   
    49    22    23 ar  
    50    22    60 1   
    51    23    24 ar  
    52    23    25 1   
    53    24    61 1   
    54    26    27 1   
    55    26    62 1   
    56    26    63 1   
    57    27    28 ar  
    58    27    32 ar  
    59    28    29 ar  
    60    28    64 1   
    61    29    30 ar  
    62    29    65 1   
    63    30    31 ar  
    64    30    66 1   
    65    31    32 ar  
    66    31    33 1   
    67    32    67 1   
    68    33    34 1   
    69    34    35 1   
    70    34    36 1   
    71    34    68 1   
    72    35    37 1   
    73    35    69 1   
    74    35    70 1   
    75    36    71 1   
    76    36    72 1   
    77    36    73 1   
    78    37    74 1   
    79    37    75 1   
    80    37    76 1   
@<TRIPOS>SUBSTRUCTURE
     1 4QD         1 TEMP              0 ****  ****    0 ROOT
