@<TRIPOS>MOLECULE
4QE
   48    51     1     0     0
SMALL
bcc


@<TRIPOS>ATOM
      1 CAU          0.0000     0.0000     0.0000 c3         1 4QE      -0.022400
      2 CAV          1.5300     0.0000     0.0000 c3         1 4QE      -0.022400
      3 CAW          2.0400     0.0000     1.4430 c3         1 4QE      -0.026400
      4 CAX          1.5300    -1.2500     2.1630 c3         1 4QE      -0.022400
      5 CAY          0.0000    -1.2490     2.1640 c3         1 4QE      -0.022400
      6 CAT         -0.5100    -1.2490     0.7210 c3         1 4QE      -0.059700
      7 CAS         -2.0400    -1.2490     0.7210 c3         1 4QE       0.209400
      8 O6          -2.5170    -1.3660    -0.6200 os         1 4QE      -0.402100
      9 C6          -3.8600    -1.3820    -0.7970 ca         1 4QE       0.725600
     10 N1          -4.6800    -1.2850     0.2410 nb         1 4QE      -0.739000
     11 C2          -5.9970    -1.2990     0.0780 ca         1 4QE       0.757900
     12 N2          -6.8100    -1.1940     1.1950 nv         1 4QE      -0.636500
     13 N3          -6.5620    -1.4080    -1.1140 nb         1 4QE      -0.656000
     14 C4          -5.8130    -1.5100    -2.2080 ca         1 4QE       0.241800
     15 N4          -6.0780    -1.6330    -3.5490 na         1 4QE       0.182000
     16 C5          -4.4130    -1.4940    -2.0840 ca         1 4QE      -0.201200
     17 N7          -3.8960    -1.6030    -3.3300 nc         1 4QE      -0.467100
     18 C8          -4.8710    -1.6930    -4.2000 cd         1 4QE       0.259400
     19 CAJ         -4.6980    -1.8260    -5.6620 ca         1 4QE      -0.110900
     20 CAK         -5.8080    -1.7790    -6.5070 ca         1 4QE      -0.099000
     21 CAL         -5.6400    -1.9030    -7.8710 ca         1 4QE      -0.108000
     22 CAM         -4.3740    -2.0730    -8.4010 ca         1 4QE      -0.085000
     23 CAN         -3.2700    -2.1230    -7.5700 ca         1 4QE      -0.106000
     24 CAO         -3.4240    -1.9940    -6.2050 ca         1 4QE      -0.033300
     25 CAP         -2.2190    -2.0470    -5.3010 c3         1 4QE       0.046200
     26 H1          -0.3600     0.8840     0.5130 hc         1 4QE       0.018950
     27 H2          -0.3600    -0.0030    -1.0220 hc         1 4QE       0.018950
     28 H3           1.8900     0.8860    -0.5090 hc         1 4QE       0.013450
     29 H4           1.8900    -0.8860    -0.5090 hc         1 4QE       0.013450
     30 H5           3.1230    -0.0020     1.4410 hc         1 4QE       0.012700
     31 H6           1.6760     0.8840     1.9530 hc         1 4QE       0.012700
     32 H7           1.8890    -2.1330     1.6500 hc         1 4QE       0.013450
     33 H8           1.8900    -1.2480     3.1850 hc         1 4QE       0.013450
     34 H9          -0.3600    -2.1340     2.6730 hc         1 4QE       0.018950
     35 H10         -0.3590    -0.3620     2.6730 hc         1 4QE       0.018950
     36 H11         -0.1440    -2.1320     0.2120 hc         1 4QE       0.038700
     37 H12         -2.4010    -2.0850     1.3070 h1         1 4QE       0.013700
     38 H13         -2.4010    -0.3230     1.1530 h1         1 4QE       0.013700
     39 H14         -7.1130    -2.0190     1.6720 hn         1 4QE       0.278800
     40 H15         -7.1100    -0.2930     1.5120 hn         1 4QE       0.278800
     41 H16         -6.9840    -1.6790    -3.9730 hn         1 4QE       0.137700
     42 H18         -6.8000    -1.6450    -6.0920 ha         1 4QE       0.095000
     43 H19         -6.5000    -1.8660    -8.5270 ha         1 4QE       0.105000
     44 H20         -4.2480    -2.1720    -9.4730 ha         1 4QE       0.103000
     45 H21         -2.2810    -2.2550    -7.9920 ha         1 4QE       0.111000
     46 H22         -2.3450    -2.8430    -4.5770 hc         1 4QE       0.022367
     47 H23         -2.1150    -1.1010    -4.7830 hc         1 4QE       0.022367
     48 H24         -1.3310    -2.2340    -5.8930 hc         1 4QE       0.022367
@<TRIPOS>BOND
     1     1     2 1   
     2     1     6 1   
     3     1    26 1   
     4     1    27 1   
     5     2     3 1   
     6     2    28 1   
     7     2    29 1   
     8     3     4 1   
     9     3    30 1   
    10     3    31 1   
    11     4     5 1   
    12     4    32 1   
    13     4    33 1   
    14     5     6 1   
    15     5    34 1   
    16     5    35 1   
    17     6     7 1   
    18     6    36 1   
    19     7     8 1   
    20     7    37 1   
    21     7    38 1   
    22     8     9 1   
    23     9    10 ar  
    24     9    16 ar  
    25    10    11 ar  
    26    11    12 1   
    27    11    13 ar  
    28    12    39 1   
    29    12    40 1   
    30    13    14 ar  
    31    14    15 1   
    32    14    16 ar  
    33    15    18 1   
    34    15    41 1   
    35    16    17 1   
    36    17    18 2   
    37    18    19 1   
    38    19    20 ar  
    39    19    24 ar  
    40    20    21 ar  
    41    20    42 1   
    42    21    22 ar  
    43    21    43 1   
    44    22    23 ar  
    45    22    44 1   
    46    23    24 ar  
    47    23    45 1   
    48    24    25 1   
    49    25    46 1   
    50    25    47 1   
    51    25    48 1   
@<TRIPOS>SUBSTRUCTURE
     1 4QE         1 TEMP              0 ****  ****    0 ROOT
