@<TRIPOS>MOLECULE
molecule
   66    70     1     0     0
SMALL
bcc


@<TRIPOS>ATOM
      1 C1           0.0000     0.0000     0.0000 c3         1 4QF      -0.070400
      2 C2           1.5320     0.0000     0.0000 c3         1 4QF       0.087800
      3 C4           1.5960    -1.2100     2.1010 c3         1 4QF       0.098500
      4 C5           0.0670    -1.2510     2.1720 c3         1 4QF      -0.065400
      5 C6          -0.5050    -1.2240     0.7590 c3         1 4QF       0.003100
      6 C7          -2.0140    -1.2390     0.7960 c2         1 4QF       0.684200
      7 C9          -1.3330    -3.0440    -0.2650 c          1 4QF       0.849900
      8 C12          1.1240    -2.9220    -0.2700 ca         1 4QF       0.116600
      9 C13          2.2420    -2.1930     0.1150 ca         1 4QF      -0.314000
     10 C14          3.5070    -2.6540    -0.1900 ca         1 4QF      -0.106000
     11 C15          3.6630    -3.8420    -0.8800 ca         1 4QF      -0.194000
     12 C16          2.5530    -4.5730    -1.2660 ca         1 4QF       0.153900
     13 C17          1.2830    -4.1170    -0.9590 ca         1 4QF      -0.196000
     14 C20         -4.2780    -0.4830     1.3010 c3         1 4QF       0.235500
     15 C21         -4.9560     0.8840     1.4070 c3         1 4QF      -0.095400
     16 C22         -6.4750     0.7060     1.3520 c3         1 4QF      -0.075900
     17 N3           2.0210     0.0000     1.3840 n3         1 4QF      -0.722600
     18 N8          -2.3780    -2.3350     0.1760 ne         1 4QF      -0.737100
     19 N10         -0.1580    -2.4560     0.0380 n          1 4QF      -0.408000
     20 O11         -1.4310    -4.0970    -0.8670 o          1 4QF      -0.610500
     21 F18          2.7090    -5.7330    -1.9400 f          1 4QF      -0.136900
     22 N19         -2.8240    -0.3120     1.3550 nu         1 4QF      -0.816200
     23 C23         -6.9280    -0.1790     2.5140 c3         1 4QF      -0.085400
     24 C24         -6.2500    -1.5460     2.4090 c3         1 4QF      -0.075900
     25 C25         -4.7310    -1.3680     2.4650 c3         1 4QF      -0.095400
     26 C26          3.4810     0.1520     1.4270 c3         1 4QF       0.193100
     27 C27          3.8440     1.5880     1.1490 ca         1 4QF      -0.083300
     28 C28          4.0660     2.0060    -0.1500 ca         1 4QF      -0.117000
     29 C29          4.3940     3.3240    -0.4060 ca         1 4QF      -0.128000
     30 C30          4.5020     4.2250     0.6380 ca         1 4QF      -0.125000
     31 C31          4.2800     3.8070     1.9370 ca         1 4QF      -0.128000
     32 C32          3.9520     2.4890     2.1930 ca         1 4QF      -0.117000
     33 C33          2.1720    -1.1920     3.5180 c3         1 4QF      -0.092100
     34 H1          -0.3600     0.8990     0.4860 hc         1 4QF       0.063200
     35 H2          -0.3600    -0.0350    -1.0210 hc         1 4QF       0.063200
     36 H3           1.8910     0.8860    -0.5090 h1         1 4QF       0.087200
     37 H4           1.8910    -0.8860    -0.5090 h1         1 4QF       0.087200
     38 H5           1.9540    -2.0850     1.5720 h1         1 4QF       0.115700
     39 H6          -0.2460    -2.1600     2.6700 hc         1 4QF       0.063200
     40 H7          -0.2910    -0.3890     2.7220 hc         1 4QF       0.063200
     41 H8           2.1220    -1.2610     0.6540 ha         1 4QF       0.233000
     42 H9           4.3780    -2.0840     0.1110 ha         1 4QF       0.135000
     43 H10          4.6570    -4.2010    -1.1200 ha         1 4QF       0.142000
     44 H11          0.4140    -4.6890    -1.2610 ha         1 4QF       0.197000
     45 H12         -4.5570    -0.9510     0.3640 h1         1 4QF       0.092700
     46 H14         -4.6820     1.3490     2.3470 hc         1 4QF       0.049700
     47 H15         -6.7470     0.2370     0.4140 hc         1 4QF       0.049200
     48 H16         -6.9540     1.6750     1.4290 hc         1 4QF       0.049200
     49 H18         -2.4320     0.5020     1.7850 hn         1 4QF       0.453800
     50 H19         -8.0030    -0.3060     2.4710 hc         1 4QF       0.044200
     51 H20         -6.6510     0.2880     3.4510 hc         1 4QF       0.044200
     52 H21         -6.5230    -2.0120     1.4700 hc         1 4QF       0.049200
     53 H22         -6.5690    -2.1710     3.2340 hc         1 4QF       0.049200
     54 H23         -4.2520    -2.3360     2.3880 hc         1 4QF       0.049700
     55 H24         -4.4580    -0.8970     3.4010 hc         1 4QF       0.049700
     56 H25          3.9330    -0.4860     0.6770 h1         1 4QF       0.054200
     57 H26          3.8450    -0.1290     2.4080 h1         1 4QF       0.054200
     58 H27          3.9810     1.3000    -0.9680 ha         1 4QF       0.130500
     59 H28          4.5670     3.6510    -1.4240 ha         1 4QF       0.130500
     60 H29          4.7590     5.2580     0.4370 ha         1 4QF       0.130000
     61 H30          4.3650     4.5130     2.7550 ha         1 4QF       0.130500
     62 H31          3.7790     2.1620     3.2110 ha         1 4QF       0.130500
     63 H32          3.1890    -1.5650     3.5000 hc         1 4QF       0.043367
     64 H33          1.5690    -1.8210     4.1620 hc         1 4QF       0.043367
     65 H34          2.1670    -0.1770     3.8970 hc         1 4QF       0.043367
     66 H13         -4.6360     1.5100     0.5820 hc         1 4QF       0.049700
@<TRIPOS>BOND
     1    21    12 1
     2    20     7 2
     3    12    11 ar
     4    12    13 ar
     5    11    10 ar
     6    13     8 ar
     7     7    18 1
     8     7    19 1
     9    10     9 ar
    10     8     9 ar
    11     8    19 1
    12    18     6 2
    13    19     5 1
    14     6     5 1
    15     6    22 1
    16    24    25 1
    17    24    23 1
    18    25    14 1
    19    29    30 ar
    20    29    28 ar
    21     5     4 1
    22     5     1 1
    23    30    31 ar
    24     4     3 1
    25    14    22 1
    26    14    15 1
    27    28    27 ar
    28     3    33 1
    29     3    17 1
    30    23    16 1
    31    31    32 ar
    32     1     2 1
    33    16    15 1
    34     2    17 1
    35    27    32 ar
    36    27    26 1
    37    17    26 1
    38     1    34 1
    39     1    35 1
    40     2    36 1
    41     2    37 1
    42     3    38 1
    43     4    39 1
    44     4    40 1
    45     9    41 1
    46    10    42 1
    47    11    43 1
    48    13    44 1
    49    14    45 1
    50    15    66 1
    51    15    46 1
    52    16    47 1
    53    16    48 1
    54    22    49 1
    55    23    50 1
    56    23    51 1
    57    24    52 1
    58    24    53 1
    59    25    54 1
    60    25    55 1
    61    26    56 1
    62    26    57 1
    63    28    58 1
    64    29    59 1
    65    30    60 1
    66    31    61 1
    67    32    62 1
    68    33    63 1
    69    33    64 1
    70    33    65 1
@<TRIPOS>SUBSTRUCTURE
     1 4QF         1 TEMP              0 ****  ****    0 ROOT
