@<TRIPOS>MOLECULE
molecule
   60    63     1     0     0
SMALL
bcc


@<TRIPOS>ATOM
      1 CAC          0.0000     0.0000     0.0000 c3         1 4QH       0.123700
      2 OAU          1.4290     0.0000     0.0000 os         1 4QH      -0.312900
      3 CBA          2.0460     0.0000     1.2120 ca         1 4QH       0.096100
      4 CAO          1.2930    -0.0010     2.3750 ca         1 4QH      -0.090000
      5 CAZ          3.4350    -0.0060     1.2870 ca         1 4QH       0.171100
      6 OAT          4.1790    -0.0090     0.1490 os         1 4QH      -0.306900
      7 CAB          5.6000    -0.0150     0.3020 c3         1 4QH       0.124700
      8 CAM          4.0600    -0.0060     2.5240 ca         1 4QH      -0.218000
      9 CAN          3.3020    -0.0020     3.6800 ca         1 4QH      -0.018000
     10 CBC          1.9210    -0.0020     3.6060 ca         1 4QH      -0.314500
     11 SBI          0.9620     0.0040     5.0840 sy         1 4QH       1.433200
     12 OAG         -0.3050    -0.5420     4.7420 o          1 4QH      -0.639300
     13 OAH          1.7910    -0.5350     6.1030 o          1 4QH      -0.639300
     14 NAR          0.6940     1.5880     5.4880 nu         1 4QH      -0.756500
     15 CAY          0.0020     2.4280     4.6060 ca         1 4QH       0.133600
     16 CAP         -1.0400     1.9250     3.8440 ca         1 4QH      -0.160000
     17 CBE         -1.7250     2.7580     2.9720 ca         1 4QH      -0.011400
     18 NBG         -2.7890     2.5550     2.0930 n          1 4QH      -0.360000
     19 CAD         -3.4900     1.2870     1.8770 c3         1 4QH       0.119300
     20 CBD         -3.0620     3.7210     1.4800 c          1 4QH       0.801500
     21 OAF         -3.9360     3.8880     0.6500 o          1 4QH      -0.659500
     22 NBH         -2.2190     4.6740     1.9210 n          1 4QH      -0.359000
     23 CAE         -2.2050     6.0740     1.4880 c3         1 4QH       0.116300
     24 CBF         -1.3630     4.1020     2.8630 ca         1 4QH       0.017600
     25 CAQ         -0.3200     4.6050     3.6260 ca         1 4QH      -0.191000
     26 CBB          0.3580     3.7730     4.5000 ca         1 4QH       0.117100
     27 OAV          1.3770     4.2660     5.2540 os         1 4QH      -0.241200
     28 CAX          1.6120     5.6050     5.2130 ca         1 4QH       0.056100
     29 CAK          0.6850     6.4880     5.7450 ca         1 4QH      -0.102500
     30 CAI          0.9240     7.8480     5.7030 ca         1 4QH      -0.180500
     31 CAW          2.0900     8.3300     5.1300 ca         1 4QH       0.141100
     32 OAS          2.3260     9.6690     5.0890 os         1 4QH      -0.325900
     33 CAA          3.5480    10.0940     4.4830 c3         1 4QH       0.127700
     34 CAJ          3.0180     7.4470     4.5980 ca         1 4QH      -0.180500
     35 CAL          2.7820     6.0870     4.6440 ca         1 4QH      -0.102500
     36 H1          -0.3610    -0.8370     0.5850 h1         1 4QH       0.044033
     37 H2          -0.3610     0.9250     0.4320 h1         1 4QH       0.044033
     38 H3          -0.3610    -0.0880    -1.0180 h1         1 4QH       0.044033
     39 H4           0.2110    -0.0010     2.3200 ha         1 4QH       0.158000
     40 H5           5.9000    -0.8990     0.8520 h1         1 4QH       0.044367
     41 H6           6.0690    -0.0210    -0.6740 h1         1 4QH       0.044367
     42 H7           5.9080     0.8700     0.8450 h1         1 4QH       0.044367
     43 H8           5.1410    -0.0080     2.5850 ha         1 4QH       0.146000
     44 H9           3.7910    -0.0020     4.6470 ha         1 4QH       0.152000
     45 H10          0.9950     1.9350     6.3770 hn         1 4QH       0.473800
     46 H11         -1.3730     0.9040     3.9900 ha         1 4QH       0.193000
     47 H12         -4.5200     1.3850     2.2000 h1         1 4QH       0.053700
     48 H13         -3.0060     0.5040     2.4480 h1         1 4QH       0.053700
     49 H14         -3.4640     1.0350     0.8240 h1         1 4QH       0.053700
     50 H15         -1.2160     6.3320     1.1300 h1         1 4QH       0.054033
     51 H16         -2.9250     6.2120     0.6900 h1         1 4QH       0.054033
     52 H17         -2.4650     6.7130     2.3230 h1         1 4QH       0.054033
     53 H18         -0.0420     5.6490     3.5450 ha         1 4QH       0.156000
     54 H19         -0.2260     6.1120     6.1930 ha         1 4QH       0.148500
     55 H20          0.2000     8.5380     6.1190 ha         1 4QH       0.147000
     56 H21          4.3860     9.6640     5.0180 h1         1 4QH       0.043700
     57 H22          3.5730     9.7670     3.4510 h1         1 4QH       0.043700
     58 H23          3.6130    11.1750     4.5200 h1         1 4QH       0.043700
     59 H24          3.9310     7.8230     4.1510 ha         1 4QH       0.147000
     60 H25          3.5070     5.3970     4.2290 ha         1 4QH       0.148500
@<TRIPOS>BOND
     1    12    11 2
     2     9     8 ar
     3     9    10 ar
     4     8     5 ar
     5     7     6 1
     6    11    10 1
     7    11    13 2
     8    11    14 1
     9    10     4 ar
    10     5     6 1
    11     5     3 ar
    12     4     3 ar
    13     3     2 1
    14    14    15 1
    15     2     1 1
    16    34    35 ar
    17    34    31 ar
    18    35    28 ar
    19    15    16 ar
    20    15    26 ar
    21    32    31 1
    22    32    33 1
    23    31    30 ar
    24    27    28 1
    25    27    26 1
    26    28    29 ar
    27    30    29 ar
    28    16    17 ar
    29    26    25 ar
    30    17    24 ar
    31    17    18 1
    32    25    24 ar
    33    19    18 1
    34    24    22 1
    35    18    20 1
    36    22    20 1
    37    22    23 1
    38    20    21 2
    39     1    36 1
    40     1    37 1
    41     1    38 1
    42     4    39 1
    43     7    40 1
    44     7    41 1
    45     7    42 1
    46     8    43 1
    47     9    44 1
    48    14    45 1
    49    16    46 1
    50    19    47 1
    51    19    48 1
    52    19    49 1
    53    23    50 1
    54    23    51 1
    55    23    52 1
    56    25    53 1
    57    29    54 1
    58    30    55 1
    59    33    56 1
    60    33    57 1
    61    33    58 1
    62    34    59 1
    63    35    60 1
@<TRIPOS>SUBSTRUCTURE
     1 4QH         1 TEMP              0 ****  ****    0 ROOT
