@<TRIPOS>MOLECULE
4QH
   60    63     1     0     0
SMALL
bcc


@<TRIPOS>ATOM
      1 CAC          0.0000     0.0000     0.0000 c3         1 4QH       0.237700
      2 OAU          1.4290     0.0000     0.0000 os         1 4QH      -0.291900
      3 CBA          2.0460     0.0000     1.2120 ca         1 4QH       0.090100
      4 CAO          1.2930    -0.0010     2.3750 ca         1 4QH      -0.076000
      5 CAZ          3.4350    -0.0060     1.2870 ca         1 4QH       0.172100
      6 OAT          4.1790    -0.0090     0.1490 os         1 4QH      -0.289900
      7 CAB          5.6000    -0.0150     0.3020 c3         1 4QH       0.242700
      8 CAM          4.0600    -0.0060     2.5240 ca         1 4QH      -0.213000
      9 CAN          3.3020    -0.0020     3.6800 ca         1 4QH       0.015000
     10 CBC          1.9210    -0.0020     3.6060 ca         1 4QH      -0.158500
     11 SBI          0.9620     0.0040     5.0840 sy         1 4QH       1.045200
     12 OAG         -0.3050    -0.5420     4.7420 o          1 4QH      -0.591300
     13 OAH          1.7910    -0.5350     6.1030 o          1 4QH      -0.591300
     14 NAR          0.6940     1.5880     5.4880 nu         1 4QH      -0.378500
     15 CAY          0.0020     2.4280     4.6060 ca         1 4QH       0.046600
     16 CAP         -1.0400     1.9250     3.8440 ca         1 4QH      -0.142000
     17 CBE         -1.7250     2.7580     2.9720 ca         1 4QH      -0.154400
     18 NBG         -2.7890     2.5550     2.0930 n          1 4QH       0.046000
     19 CAD         -3.4900     1.2870     1.8770 c3         1 4QH       0.089300
     20 CBD         -3.0620     3.7210     1.4800 c          1 4QH       0.581500
     21 OAF         -3.9360     3.8880     0.6500 o          1 4QH      -0.720500
     22 NBH         -2.2190     4.6740     1.9210 n          1 4QH       0.044000
     23 CAE         -2.2050     6.0740     1.4880 c3         1 4QH       0.086300
     24 CBF         -1.3630     4.1020     2.8630 ca         1 4QH      -0.130400
     25 CAQ         -0.3200     4.6050     3.6260 ca         1 4QH      -0.167000
     26 CBB          0.3580     3.7730     4.5000 ca         1 4QH       0.113100
     27 OAV          1.3770     4.2660     5.2540 os         1 4QH      -0.215200
     28 CAX          1.6120     5.6050     5.2130 ca         1 4QH       0.059100
     29 CAK          0.6850     6.4880     5.7450 ca         1 4QH      -0.079000
     30 CAI          0.9240     7.8480     5.7030 ca         1 4QH      -0.162000
     31 CAW          2.0900     8.3300     5.1300 ca         1 4QH       0.147100
     32 OAS          2.3260     9.6690     5.0890 os         1 4QH      -0.305900
     33 CAA          3.5480    10.0940     4.4830 c3         1 4QH       0.244700
     34 CAJ          3.0180     7.4470     4.5980 ca         1 4QH      -0.162000
     35 CAL          2.7820     6.0870     4.6440 ca         1 4QH      -0.079000
     36 H1          -0.3610    -0.8370     0.5850 h1         1 4QH       0.000367
     37 H2          -0.3610     0.9250     0.4320 h1         1 4QH       0.000367
     38 H3          -0.3610    -0.0880    -1.0180 h1         1 4QH       0.000367
     39 H4           0.2110    -0.0010     2.3200 ha         1 4QH       0.141000
     40 H5           5.9000    -0.8990     0.8520 h1         1 4QH      -0.000633
     41 H6           6.0690    -0.0210    -0.6740 h1         1 4QH      -0.000633
     42 H7           5.9080     0.8700     0.8450 h1         1 4QH      -0.000633
     43 H8           5.1410    -0.0080     2.5850 ha         1 4QH       0.128000
     44 H9           3.7910    -0.0020     4.6470 ha         1 4QH       0.123000
     45 H10          0.9950     1.9350     6.3770 hn         1 4QH       0.353800
     46 H11         -1.3730     0.9040     3.9900 ha         1 4QH       0.180000
     47 H12         -4.5200     1.3850     2.2000 h1         1 4QH       0.019033
     48 H13         -3.0060     0.5040     2.4480 h1         1 4QH       0.019033
     49 H14         -3.4640     1.0350     0.8240 h1         1 4QH       0.019033
     50 H15         -1.2160     6.3320     1.1300 h1         1 4QH       0.019033
     51 H16         -2.9250     6.2120     0.6900 h1         1 4QH       0.019033
     52 H17         -2.4650     6.7130     2.3230 h1         1 4QH       0.019033
     53 H18         -0.0420     5.6490     3.5450 ha         1 4QH       0.133000
     54 H19         -0.2260     6.1120     6.1930 ha         1 4QH       0.117000
     55 H20          0.2000     8.5380     6.1190 ha         1 4QH       0.122000
     56 H21          4.3860     9.6640     5.0180 h1         1 4QH      -0.001633
     57 H22          3.5730     9.7670     3.4510 h1         1 4QH      -0.001633
     58 H23          3.6130    11.1750     4.5200 h1         1 4QH      -0.001633
     59 H24          3.9310     7.8230     4.1510 ha         1 4QH       0.122000
     60 H25          3.5070     5.3970     4.2290 ha         1 4QH       0.117000
@<TRIPOS>BOND
     1     1     2 1   
     2     1    36 1   
     3     1    37 1   
     4     1    38 1   
     5     2     3 1   
     6     3     4 ar  
     7     3     5 ar  
     8     4    10 ar  
     9     4    39 1   
    10     5     6 1   
    11     5     8 ar  
    12     6     7 1   
    13     7    40 1   
    14     7    41 1   
    15     7    42 1   
    16     8     9 ar  
    17     8    43 1   
    18     9    10 ar  
    19     9    44 1   
    20    10    11 1   
    21    11    12 2   
    22    11    13 2   
    23    11    14 1   
    24    14    15 1   
    25    14    45 1   
    26    15    16 ar  
    27    15    26 ar  
    28    16    17 ar  
    29    16    46 1   
    30    17    18 1   
    31    17    24 ar  
    32    18    19 1   
    33    18    20 1   
    34    19    47 1   
    35    19    48 1   
    36    19    49 1   
    37    20    21 2   
    38    20    22 1   
    39    22    23 1   
    40    22    24 1   
    41    23    50 1   
    42    23    51 1   
    43    23    52 1   
    44    24    25 ar  
    45    25    26 ar  
    46    25    53 1   
    47    26    27 1   
    48    27    28 1   
    49    28    29 ar  
    50    28    35 ar  
    51    29    30 ar  
    52    29    54 1   
    53    30    31 ar  
    54    30    55 1   
    55    31    32 1   
    56    31    34 ar  
    57    32    33 1   
    58    33    56 1   
    59    33    57 1   
    60    33    58 1   
    61    34    35 ar  
    62    34    59 1   
    63    35    60 1   
@<TRIPOS>SUBSTRUCTURE
     1 4QH         1 TEMP              0 ****  ****    0 ROOT
