@<TRIPOS>MOLECULE
molecule
   64    70     1     0     0
SMALL
bcc


@<TRIPOS>ATOM
      1 C4           0.0000     0.0000     0.0000 ca         1 4QJ      -0.061000
      2 C5           4.2180     0.0340     0.6220 ca         1 4QJ      -0.084000
      3 C6           3.5970     0.1060     2.9410 ca         1 4QJ      -0.084000
      4 C7           5.5520     0.0490     0.9780 ca         1 4QJ      -0.122000
      5 C8           4.9370     0.1210     3.2950 ca         1 4QJ      -0.122000
      6 C10         10.2410    -2.2050     5.9590 ca         1 4QJ       0.117000
      7 C13          3.2400     0.0620     1.6030 cp         1 4QJ      -0.152500
      8 C15          5.9140     0.0930     2.3120 ca         1 4QJ      -0.097300
      9 C17          2.0620     0.0000     1.2170 cp         1 4QJ       0.526800
     10 C20          8.3170    -2.2110     3.8420 cc         1 4QJ       0.210300
     11 C21          9.7910    -4.4570     3.7600 c          1 4QJ       0.225100
     12 C22         11.0000    -4.7060     1.5970 cc         1 4QJ       0.652800
     13 C24         13.4850    -3.9540    -0.2350 c3         1 4QJ      -0.100400
     14 C26         12.1060    -4.1130    -0.4530 c3         1 4QJ       0.107500
     15 C1          11.5200    -4.1720     6.4630 ca         1 4QJ      -0.176000
     16 C2          10.8730    -4.8530     5.4450 ca         1 4QJ      -0.272500
     17 C3          11.2040    -2.8480     6.7200 ca         1 4QJ      -0.272500
     18 C9           9.9110    -4.2100     4.6830 ca         1 4QJ       0.117000
     19 C11          1.3850     0.0000     0.0000 ca         1 4QJ      -0.247300
     20 C12         -0.6630     0.0050     1.2170 ca         1 4QJ      -0.288300
     21 C14          9.1780    -3.1120     3.2530 cd         1 4QJ      -0.222900
     22 C16          9.5950    -2.8860     4.9400 ca         1 4QJ       0.088600
     23 C18          9.4890    -2.6410     1.9930 cd         1 4QJ       0.598200
     24 C19          0.0730     0.0100     2.3920 ca         1 4QJ       0.637500
     25 C23         13.4150    -2.2910     1.3670 c3         1 4QJ      -0.102400
     26 C25         12.1960    -1.7360     0.9640 c3         1 4QJ      -0.077400
     27 C27         11.4260    -2.8910     0.2370 c3         1 4QJ       0.194500
     28 C29          7.4100     0.1200     2.6440 c3         1 4QJ       0.155600
     29 N30          1.3920     0.0100     2.3630 nb         1 4QJ      -0.745000
     30 N31          8.8360    -1.4810     1.8120 nc         1 4QJ      -0.556800
     31 N32         11.8380    -5.2640     0.6020 n2         1 4QJ      -0.658900
     32 N33          8.1020    -1.2120     2.9710 na         1 4QJ       0.032400
     33 N34         10.4150    -3.4210     1.1100 na         1 4QJ      -0.726300
     34 N35         10.6810    -5.2060     2.9110 n          1 4QJ      -0.400300
     35 O37          9.6660    -4.7740     4.8950 o          1 4QJ       0.009500
     36 F38         -0.6570     0.0040     3.5450 f          1 4QJ      -0.226200
     37 H1          -0.5420     0.0000    -0.9380 ha         1 4QJ       0.147000
     38 H2           3.9370    -0.0010    -0.4230 ha         1 4QJ       0.157500
     39 H3           2.8330     0.1280     3.7090 ha         1 4QJ       0.157500
     40 H4           6.3170     0.0270     0.2110 ha         1 4QJ       0.140500
     41 H5           5.2210     0.1560     4.3400 ha         1 4QJ       0.140500
     42 H7          13.9330    -3.4140    -1.0610 hc         1 4QJ       0.050700
     43 H8          13.9560    -4.9210    -0.1130 hc         1 4QJ       0.050700
     44 H9          11.8870    -4.1190    -1.5140 h1         1 4QJ       0.099700
     45 H13         12.2720    -4.6750     7.0590 ha         1 4QJ       0.121000
     46 H14         11.1200    -5.8880     5.2440 ha         1 4QJ       0.137500
     47 H15         11.7090    -2.3150     7.5170 ha         1 4QJ       0.137500
     48 H16          9.4050    -4.7420     3.8870 ha         1 4QJ       0.076000
     49 H17          1.9270    -0.0040    -0.9380 ha         1 4QJ       0.146000
     50 H18         -1.7460     0.0050     1.2440 ha         1 4QJ       0.154000
     51 H19         13.2490    -2.7240     2.3460 hc         1 4QJ       0.050200
     52 H20         14.3380    -1.7230     1.3540 hc         1 4QJ       0.050200
     53 H21         11.6540    -1.3610     1.8240 hc         1 4QJ       0.055700
     54 H22         12.3660    -0.9420     0.2470 hc         1 4QJ       0.055700
     55 H23         11.0050    -2.5580    -0.7040 h1         1 4QJ       0.050700
     56 H24          7.9020     0.8660     2.0310 h1         1 4QJ       0.077700
     57 H25          7.5430     0.3670     3.6900 h1         1 4QJ       0.077700
     58 N36          7.9210    -2.2180     5.2340 nu         1 4QJ      -0.792000
     59 C28         11.2280    -6.4840     3.3650 c3         1 4QJ       0.120300
     60 H6           9.9940    -1.1690     6.1600 ha         1 4QJ       0.076000
     61 H10         12.0030    -6.3050     4.1000 h1         1 4QJ       0.049700
     62 H11         11.6470    -7.0170     2.5200 h1         1 4QJ       0.049700
     63 H12         10.4380    -7.0770     3.8100 h1         1 4QJ       0.049700
     64 H26          6.9500    -2.2410     5.4780 hn         1 4QJ       0.435800
@<TRIPOS>BOND
     1    13    25 1
     2    13    14 1
     3    25    26 1
     4    14    27 1
     5    14    31 1
     6    36    24 1
     7    26    27 1
     8    27    33 1
     9    31    12 2
    10    24    29 ar
    11    24    20 ar
    12    29     9 ar
    13    33    12 1
    14    33    23 1
    15    12    34 1
    16    20     1 ar
    17     3     5 ar
    18     3     7 ar
    19     5     8 ar
    20    30    23 2
    21    30    32 1
    22    23    21 1
    23     9     7 1
    24     9    19 ar
    25     7     2 ar
    26    34    59 1
    27    34    11 1
    28     1    19 ar
    29     8    28 1
    30     8     4 ar
    31    32    28 1
    32    32    10 1
    33    21    11 1
    34    21    10 2
    35    11    35 2
    36     2     4 ar
    37    10    58 1
    38    58    22 1
    39     6    22 ar
    40     6    17 ar
    41    22    18 ar
    42    17    15 ar
    43    18    16 ar
    44    15    16 ar
    45     1    37 1
    46     2    38 1
    47     3    39 1
    48     4    40 1
    49     5    41 1
    50     6    60 1
    51    13    42 1
    52    13    43 1
    53    14    44 1
    54    59    61 1
    55    59    62 1
    56    59    63 1
    57    15    45 1
    58    16    46 1
    59    17    47 1
    60    18    48 1
    61    19    49 1
    62    20    50 1
    63    25    51 1
    64    25    52 1
    65    26    53 1
    66    26    54 1
    67    27    55 1
    68    28    56 1
    69    28    57 1
    70    58    64 1
@<TRIPOS>SUBSTRUCTURE
     1 4QJ         1 TEMP              0 ****  ****    0 ROOT
