@<TRIPOS>MOLECULE
4QL
   41    41     1     0     0
SMALL
bcc


@<TRIPOS>ATOM
      1 O25          0.0000     0.0000     0.0000 o          1 4QL      -0.625100
      2 C17          1.2130     0.0000     0.0000 c          1 4QL       0.553100
      3 C18          1.9660     0.0000     1.3050 c3         1 4QL      -0.101400
      4 C19          0.9720     0.0010     2.4680 c3         1 4QL      -0.016400
      5 C20          1.7370     0.0020     3.7930 c3         1 4QL      -0.033400
      6 C21          0.7430     0.0020     4.9560 c3         1 4QL      -0.028400
      7 C22          1.5090     0.0030     6.2810 c3         1 4QL      -0.031400
      8 C23          0.5150     0.0030     7.4440 c3         1 4QL      -0.029400
      9 C24          1.2800     0.0030     8.7690 c3         1 4QL       0.005900
     10 N13          1.8860    -0.0060    -1.1680 ns         1 4QL      -0.029100
     11 C5           1.1890    -0.1080    -2.3780 ca         1 4QL      -0.115400
     12 C6           0.7480     1.0400    -3.0200 ca         1 4QL       0.259900
     13 I3           1.1250     2.9210    -2.1780 i          1 4QL      -0.372900
     14 C4           0.9470    -1.3550    -2.9340 ca         1 4QL       0.259900
     15 I2           1.6250    -3.0840    -1.9640 i          1 4QL      -0.372900
     16 C3           0.2510    -1.4610    -4.1420 ca         1 4QL      -0.058600
     17 C10         -0.0060    -2.7890    -4.7330 c          1 4QL       0.989200
     18 O12         -1.0210    -3.3940    -4.4470 o          1 4QL      -0.876300
     19 O11          0.8820    -3.3300    -5.5880 o          1 4QL      -0.876300
     20 C2          -0.2000    -0.3100    -4.7880 ca         1 4QL       0.287900
     21 I1          -1.2430    -0.4620    -6.5980 i          1 4QL      -0.302900
     22 C1           0.0510     0.9430    -4.2290 ca         1 4QL      -0.058600
     23 C7          -0.4180     2.1650    -4.9110 c          1 4QL       0.989200
     24 O8           0.2970     2.7220    -5.7200 o          1 4QL      -0.876300
     25 O9          -1.6400     2.6620    -4.6370 o          1 4QL      -0.876300
     26 H1           2.5890    -0.8850     1.3620 hc         1 4QL       0.017700
     27 H2           2.5890     0.8840     1.3620 hc         1 4QL       0.017700
     28 H3           0.3500    -0.8840     2.4110 hc         1 4QL       0.033200
     29 H4           0.3490     0.8850     2.4100 hc         1 4QL       0.033200
     30 H5           2.3600    -0.8820     3.8510 hc         1 4QL       0.006200
     31 H6           2.3600     0.8870     3.8490 hc         1 4QL       0.006200
     32 H7           0.1200    -0.8820     4.8990 hc         1 4QL       0.017700
     33 H8           0.1200     0.8870     4.8990 hc         1 4QL       0.017700
     34 H9           2.1320    -0.8820     6.3380 hc         1 4QL       0.010700
     35 H10          2.1320     0.8870     6.3370 hc         1 4QL       0.010700
     36 H11         -0.1080    -0.8810     7.3870 hc         1 4QL       0.012700
     37 H12         -0.1080     0.8880     7.3860 hc         1 4QL       0.012700
     38 H13          0.5760     0.0040     9.5920 hc         1 4QL      -0.004633
     39 H14          1.9030    -0.8810     8.8260 hc         1 4QL      -0.004633
     40 H15          1.9030     0.8880     8.8260 hc         1 4QL      -0.004633
     41 H16          2.8840     0.0700    -1.1700 hn         1 4QL       0.153500
@<TRIPOS>BOND
     1     1     2 2   
     2     2     3 1   
     3     2    10 1   
     4     3     4 1   
     5     3    26 1   
     6     3    27 1   
     7     4     5 1   
     8     4    28 1   
     9     4    29 1   
    10     5     6 1   
    11     5    30 1   
    12     5    31 1   
    13     6     7 1   
    14     6    32 1   
    15     6    33 1   
    16     7     8 1   
    17     7    34 1   
    18     7    35 1   
    19     8     9 1   
    20     8    36 1   
    21     8    37 1   
    22     9    38 1   
    23     9    39 1   
    24     9    40 1   
    25    10    11 1   
    26    10    41 1   
    27    11    12 ar  
    28    11    14 ar  
    29    12    13 1   
    30    12    22 ar  
    31    14    15 1   
    32    14    16 ar  
    33    16    17 1   
    34    16    20 ar  
    35    17    18 1   
    36    17    19 1   
    37    20    21 1   
    38    20    22 ar  
    39    22    23 1   
    40    23    24 1   
    41    23    25 1   
@<TRIPOS>SUBSTRUCTURE
     1 4QL         1 TEMP              0 ****  ****    0 ROOT
