@<TRIPOS>MOLECULE
molecule
   41    41     1     0     0
SMALL
bcc


@<TRIPOS>ATOM
      1 O25          0.0000     0.0000     0.0000 o          1 4QL      -0.579100
      2 C17          1.2130     0.0000     0.0000 c          1 4QL       0.658100
      3 C18          1.9660     0.0000     1.3050 c3         1 4QL      -0.158400
      4 C19          0.9720     0.0010     2.4680 c3         1 4QL      -0.065400
      5 C20          1.7370     0.0020     3.7930 c3         1 4QL      -0.085400
      6 C21          0.7430     0.0020     4.9560 c3         1 4QL      -0.080400
      7 C22          1.5090     0.0030     6.2810 c3         1 4QL      -0.082400
      8 C23          0.5150     0.0030     7.4440 c3         1 4QL      -0.084400
      9 C24          1.2800     0.0030     8.7690 c3         1 4QL      -0.092100
     10 N13          1.8860    -0.0060    -1.1680 ns         1 4QL      -0.488100
     11 C5           1.1890    -0.1080    -2.3780 ca         1 4QL       0.074600
     12 C6           0.7480     1.0400    -3.0200 ca         1 4QL       0.061400
     13 I3           1.1250     2.9210    -2.1780 i          1 4QL      -0.217400
     14 C4           0.9470    -1.3550    -2.9340 ca         1 4QL       0.061400
     15 I2           1.6250    -3.0840    -1.9640 i          1 4QL      -0.217400
     16 C3           0.2510    -1.4610    -4.1420 ca         1 4QL      -0.013600
     17 C10         -0.0060    -2.7890    -4.7330 c          1 4QL       0.878200
     18 O12         -1.0210    -3.3940    -4.4470 o          1 4QL      -0.822550
     19 O11          0.8820    -3.3300    -5.5880 o          1 4QL      -0.822550
     20 C2          -0.2000    -0.3100    -4.7880 ca         1 4QL       0.093900
     21 I1          -1.2430    -0.4620    -6.5980 i          1 4QL      -0.164900
     22 C1           0.0510     0.9430    -4.2290 ca         1 4QL      -0.013600
     23 C7          -0.4180     2.1650    -4.9110 c          1 4QL       0.878200
     24 O8           0.2970     2.7220    -5.7200 o          1 4QL      -0.822550
     25 O9          -1.6400     2.6620    -4.6370 o          1 4QL      -0.822550
     26 H1           2.5890    -0.8850     1.3620 hc         1 4QL       0.050200
     27 H2           2.5890     0.8840     1.3620 hc         1 4QL       0.050200
     28 H3           0.3500    -0.8840     2.4110 hc         1 4QL       0.061200
     29 H4           0.3490     0.8850     2.4100 hc         1 4QL       0.061200
     30 H5           2.3600    -0.8820     3.8510 hc         1 4QL       0.033200
     31 H6           2.3600     0.8870     3.8490 hc         1 4QL       0.033200
     32 H7           0.1200    -0.8820     4.8990 hc         1 4QL       0.044200
     33 H8           0.1200     0.8870     4.8990 hc         1 4QL       0.044200
     34 H9           2.1320    -0.8820     6.3380 hc         1 4QL       0.036700
     35 H10          2.1320     0.8870     6.3370 hc         1 4QL       0.036700
     36 H11         -0.1080    -0.8810     7.3870 hc         1 4QL       0.040200
     37 H12         -0.1080     0.8880     7.3860 hc         1 4QL       0.040200
     38 H13          0.5760     0.0040     9.5920 hc         1 4QL       0.027033
     39 H14          1.9030    -0.8810     8.8260 hc         1 4QL       0.027033
     40 H15          1.9030     0.8880     8.8260 hc         1 4QL       0.027033
     41 H16          2.8840     0.0700    -1.1700 hn         1 4QL       0.312500
@<TRIPOS>BOND
     1     9     8 1   
     2     8     7 1   
     3     7     6 1   
     4     6     5 1   
     5     5     4 1   
     6     4     3 1   
     7     3     2 1   
     8     2     1 2   
     9     2    10 1   
    10    15    14 1   
    11    10    11 1   
    12    11    14 ar  
    13    11    12 ar  
    14    14    16 ar  
    15    13    12 1   
    16    12    22 ar  
    17    16    17 1   
    18    16    20 ar  
    19    18    17 1   
    20    17    19 1   
    21    22    20 ar  
    22    22    23 1   
    23    20    21 1   
    24    23    24 1   
    25    23    25 1   
    26     3    26 1   
    27     3    27 1   
    28     4    28 1   
    29     4    29 1   
    30     5    30 1   
    31     5    31 1   
    32     6    32 1   
    33     6    33 1   
    34     7    34 1   
    35     7    35 1   
    36     8    36 1   
    37     8    37 1   
    38     9    38 1   
    39     9    39 1   
    40     9    40 1   
    41    10    41 1   
@<TRIPOS>SUBSTRUCTURE
     1 4QL         1 TEMP              0 ****  ****    0 ROOT
