@<TRIPOS>MOLECULE
molecule
   69    72     1     0     0
SMALL
bcc


@<TRIPOS>ATOM
      1 C1           0.0000     0.0000     0.0000 c3         1 4QM      -0.069400
      2 C2           1.5310     0.0000     0.0000 c3         1 4QM      -0.056000
      3 C3           1.4740    -1.3130    -2.1300 c3         1 4QM      -0.098400
      4 C4           2.0380    -2.5150    -2.9070 c3         1 4QM       0.159100
      5 C5           3.5480    -2.3840    -2.9080 c3         1 4QM      -0.066000
      6 C6           4.0270    -2.5040    -1.4370 c3         1 4QM      -0.059700
      7 C7           5.5410    -2.6650    -1.6150 c3         1 4QM      -0.080400
      8 C8           5.6460    -3.6340    -2.8240 c3         1 4QM      -0.077400
      9 C9           4.3270    -3.4830    -3.6220 c3         1 4QM      -0.053700
     10 C10          3.9480    -1.0180    -3.4730 c3         1 4QM      -0.105100
     11 C11          2.0420     1.2480    -0.7220 c3         1 4QM      -0.088100
     12 C12         -0.5090    -1.2530     0.7160 c3         1 4QM      -0.097400
     13 C13          0.0000    -1.2590     2.1590 c3         1 4QM       0.147100
     14 C14          1.5300    -1.2530     2.1610 c3         1 4QM      -0.098400
     15 C15          2.0380     0.0000     1.4440 c3         1 4QM      -0.046700
     16 C16          3.5680     0.0020     1.4460 c3         1 4QM      -0.097400
     17 C17          4.0810    -1.2470     0.7250 c3         1 4QM       0.151100
     18 C18          3.5750    -1.2470    -0.7180 c3         1 4QM      -0.064700
     19 C19          2.0380    -1.2530    -0.7140 c3         1 4QM      -0.049700
     20 C20          4.6240    -3.0730    -5.0650 c3         1 4QM      -0.077700
     21 C21          3.3090    -2.8940    -5.8250 c3         1 4QM      -0.094100
     22 C22          5.4620    -4.1590    -5.7430 c3         1 4QM      -0.079400
     23 C23          5.8640    -3.6930    -7.1440 c3         1 4QM      -0.087400
     24 C24          6.7010    -4.7790    -7.8220 c3         1 4QM      -0.092100
     25 O2          -0.4720    -2.4300     2.8260 oh         1 4QM      -0.604800
     26 O3           3.6030    -2.4150     1.3970 oh         1 4QM      -0.594800
     27 O4           1.6560    -3.7320    -2.2630 oh         1 4QM      -0.598800
     28 H1          -0.3600     0.0020    -1.0220 hc         1 4QM       0.040700
     29 H2          -0.3600     0.8810     0.5170 hc         1 4QM       0.040700
     30 H3           1.7360    -0.4010    -2.6530 hc         1 4QM       0.046700
     31 H4           0.3960    -1.4010    -2.0770 hc         1 4QM       0.046700
     32 H5           1.6670    -2.5000    -3.9250 h1         1 4QM       0.033700
     33 H6           3.6020    -3.3850    -0.9710 hc         1 4QM       0.094700
     34 H7           5.9850    -3.1070    -0.7320 hc         1 4QM       0.039700
     35 H8           6.0010    -1.7120    -1.8490 hc         1 4QM       0.039700
     36 H9           6.4890    -3.3590    -3.4470 hc         1 4QM       0.043200
     37 H10          5.7530    -4.6530    -2.4740 hc         1 4QM       0.043200
     38 H11          3.7690    -4.4110    -3.5980 hc         1 4QM       0.065700
     39 H12          3.1080    -0.5880    -4.0050 hc         1 4QM       0.042700
     40 H13          4.2350    -0.3610    -2.6600 hc         1 4QM       0.042700
     41 H14          4.7830    -1.1380    -4.1520 hc         1 4QM       0.042700
     42 H15          3.1240     1.2220    -0.7670 hc         1 4QM       0.034033
     43 H16          1.6400     1.2740    -1.7280 hc         1 4QM       0.034033
     44 H17          1.7240     2.1320    -0.1830 hc         1 4QM       0.034033
     45 H18         -1.5920    -1.2520     0.7170 hc         1 4QM       0.053200
     46 H19         -0.1440    -2.1340     0.2020 hc         1 4QM       0.053200
     47 H20         -0.3620    -0.3760     2.6710 h1         1 4QM       0.020700
     48 H21          1.8880    -1.2530     3.1830 hc         1 4QM       0.076700
     49 H22          1.8940    -2.1340     1.6460 hc         1 4QM       0.076700
     50 H23          1.6740     0.8830     1.9560 hc         1 4QM       0.042700
     51 H24          3.9270     0.0000     2.4680 hc         1 4QM       0.045200
     52 H25          3.9270     0.8860     0.9330 hc         1 4QM       0.045200
     53 H26          5.1650    -1.2420     0.7260 h1         1 4QM       0.029700
     54 H27          3.9400    -0.3700    -1.2390 hc         1 4QM       0.065700
     55 H28          1.6970    -2.1250    -0.1690 hc         1 4QM       0.091700
     56 H29          5.1730    -2.1390    -5.0700 hc         1 4QM       0.060700
     57 H30          3.4620    -3.1270    -6.8720 hc         1 4QM       0.034367
     58 H31          2.9720    -1.8690    -5.7280 hc         1 4QM       0.034367
     59 H32          2.5600    -3.5610    -5.4130 hc         1 4QM       0.034367
     60 H33          4.8790    -5.0690    -5.8190 hc         1 4QM       0.043700
     61 H34          6.3520    -4.3480    -5.1560 hc         1 4QM       0.043700
     62 H35          6.4460    -2.7830    -7.0680 hc         1 4QM       0.040700
     63 H36          4.9730    -3.5040    -7.7310 hc         1 4QM       0.040700
     64 H37          6.9950    -4.4450    -8.8090 hc         1 4QM       0.032367
     65 H38          6.1150    -5.6870    -7.9070 hc         1 4QM       0.032367
     66 H39          7.5870    -4.9760    -7.2290 hc         1 4QM       0.032367
     67 H40         -1.0610    -2.1810     3.5190 ho         1 4QM       0.395000
     68 H41          4.2860    -2.7650     1.9440 ho         1 4QM       0.393000
     69 H42          0.9410    -4.1260    -2.7340 ho         1 4QM       0.397000
@<TRIPOS>BOND
     1    24    23 1
     2    23    22 1
     3    22    20 1
     4    21    20 1
     5    20     9 1
     6    27     4 1
     7     9     8 1
     8     9     5 1
     9     8     7 1
    10     4     5 1
    11     4     3 1
    12     5     6 1
    13     5    10 1
    14    25    13 1
    15     6     7 1
    16     6    18 1
    17     3    19 1
    18    26    17 1
    19    12    13 1
    20    12     1 1
    21    19    18 1
    22    19     2 1
    23    13    14 1
    24    18    17 1
    25    14    15 1
    26    17    16 1
    27     1     2 1
    28     2    15 1
    29     2    11 1
    30    15    16 1
    31     1    28 1
    32     1    29 1
    33     3    30 1
    34     3    31 1
    35     4    32 1
    36     6    33 1
    37     7    34 1
    38     7    35 1
    39     8    36 1
    40     8    37 1
    41     9    38 1
    42    10    39 1
    43    10    40 1
    44    10    41 1
    45    11    42 1
    46    11    43 1
    47    11    44 1
    48    12    45 1
    49    12    46 1
    50    13    47 1
    51    14    48 1
    52    14    49 1
    53    15    50 1
    54    16    51 1
    55    16    52 1
    56    17    53 1
    57    18    54 1
    58    19    55 1
    59    20    56 1
    60    21    57 1
    61    21    58 1
    62    21    59 1
    63    22    60 1
    64    22    61 1
    65    23    62 1
    66    23    63 1
    67    24    64 1
    68    24    65 1
    69    24    66 1
    70    25    67 1
    71    26    68 1
    72    27    69 1
@<TRIPOS>SUBSTRUCTURE
     1 4QM         1 TEMP              0 ****  ****    0 ROOT
