@<TRIPOS>MOLECULE
molecule
   54    55     1     0     0
SMALL
bcc


@<TRIPOS>ATOM
      1 C18          0.0000     0.0000     0.0000 ca         1 4QO      -0.105000
      2 C17          1.3900     0.0000     0.0000 ca         1 4QO       0.070600
      3 C19         -0.6960     0.0050     1.1940 ca         1 4QO      -0.113000
      4 C11          0.1980    -0.6970    -4.9010 c3         1 4QO      -0.103600
      5 C12          1.5940    -2.7090    -4.4080 c3         1 4QO      -0.103600
      6 C1           3.8260    -0.6730    -5.7140 ca         1 4QO      -0.123000
      7 C2           2.4740    -0.9060    -5.8650 ca         1 4QO      -0.090300
      8 C3           1.9000    -0.8710    -7.1220 ca         1 4QO      -0.119000
      9 C4           2.6740    -0.6040    -8.2360 ca         1 4QO      -0.123000
     10 C5           4.0270    -0.3690    -8.1000 ca         1 4QO      -0.115000
     11 C6           4.6120    -0.3960    -6.8330 ca         1 4QO      -0.047800
     12 C7           6.0610    -0.1450    -6.6780 ce         1 4QO      -0.083400
     13 C8           6.6290     1.2100    -7.0100 c3         1 4QO      -0.047900
     14 C9           6.8590    -1.1120    -6.2480 c2         1 4QO      -0.209000
     15 C10          1.6220    -1.2000    -4.6560 c3         1 4QO       0.192700
     16 C14          1.5720    -0.6230    -2.2900 c          1 4QO       0.785100
     17 O1           0.5520    -1.2760    -2.1820 o          1 4QO      -0.648100
     18 N2           2.0890     0.0010    -1.2130 ns         1 4QO      -0.494100
     19 C22          2.0830     0.0000     1.2000 ca         1 4QO      -0.140000
     20 C21          1.3820    -0.0010     2.4060 ca         1 4QO      -0.116600
     21 C23          2.1160    -0.0000     3.6890 c          1 4QO       0.675700
     22 O2           1.8240    -0.8020     4.5560 o          1 4QO      -0.581100
     23 N3           3.1060     0.8880     3.9000 n          1 4QO      -0.494800
     24 C26          3.9170     0.8070     5.1170 c3         1 4QO       0.098800
     25 C27          3.3740     1.9350     2.9100 c3         1 4QO       0.098800
     26 C20         -0.0150     0.0110     2.3960 ca         1 4QO       0.049400
     27 Cl1         -0.8940     0.0190     3.8920 cl         1 4QO      -0.081400
     28 N1           2.1840    -0.5220    -3.4860 ns         1 4QO      -0.593900
     29 H1          -0.5400    -0.0040    -0.9390 ha         1 4QO       0.172000
     30 H2          -1.7790     0.0100     1.1880 ha         1 4QO       0.152000
     31 H3          -0.3790    -0.7870    -3.9890 hc         1 4QO       0.051867
     32 H4          -0.2650    -1.2890    -5.6810 hc         1 4QO       0.051867
     33 H5           0.2300     0.3420    -5.2080 hc         1 4QO       0.051867
     34 H6           1.5690    -3.2310    -5.3570 hc         1 4QO       0.051867
     35 H7           0.7130    -2.9640    -3.8320 hc         1 4QO       0.051867
     36 H8           2.4810    -3.0010    -3.8580 hc         1 4QO       0.051867
     37 H10          0.8380    -1.0550    -7.2350 ha         1 4QO       0.139000
     38 H11          2.2180    -0.5810    -9.2190 ha         1 4QO       0.134000
     39 H12          4.6320    -0.1580    -8.9730 ha         1 4QO       0.136000
     40 H13          6.3900     1.4610    -8.0370 hc         1 4QO       0.043033
     41 H14          6.2020     1.9540    -6.3480 hc         1 4QO       0.043033
     42 H15          7.7050     1.1910    -6.8850 hc         1 4QO       0.043033
     43 H16          7.9210    -0.9280    -6.1340 ha         1 4QO       0.118500
     44 H17          6.4500    -2.0860    -6.0090 ha         1 4QO       0.118500
     45 H18          2.9600     0.4890    -1.2880 hn         1 4QO       0.318500
     46 H19          3.1670    -0.0000     1.2010 ha         1 4QO       0.141000
     47 H20          4.3190     1.7860     5.3480 h1         1 4QO       0.041700
     48 H21          3.2990     0.4670     5.9400 h1         1 4QO       0.041700
     49 H22          4.7300     0.1090     4.9630 h1         1 4QO       0.041700
     50 H23          4.0250     1.5440     2.1370 h1         1 4QO       0.041700
     51 H24          3.8540     2.7770     3.3950 h1         1 4QO       0.041700
     52 H25          2.4400     2.2590     2.4660 h1         1 4QO       0.041700
     53 H26          3.0080     0.0390    -3.5800 hn         1 4QO       0.313500
     54 H9           4.2740    -0.6980    -4.7280 ha         1 4QO       0.130000
@<TRIPOS>BOND
     1    27    26 1   
     2    25    23 1   
     3    24    23 1   
     4    23    21 1   
     5    26     3 ar  
     6    26    20 ar  
     7     3     1 ar  
     8    21    20 1   
     9    21    22 2   
    10    20    19 ar  
    11     1     2 ar  
    12    19     2 ar  
    13     2    18 1   
    14    18    16 1   
    15    17    16 2   
    16    16    28 1   
    17    13    12 1   
    18    14    12 2   
    19    12    11 1   
    20    28    15 1   
    21    11     6 ar  
    22    11    10 ar  
    23     6     7 ar  
    24    10     9 ar  
    25     7    15 1   
    26     7     8 ar  
    27    15     5 1   
    28    15     4 1   
    29     9     8 ar  
    30     1    29 1   
    31     3    30 1   
    32     4    31 1   
    33     4    32 1   
    34     4    33 1   
    35     5    34 1   
    36     5    35 1   
    37     5    36 1   
    38     6    54 1   
    39     8    37 1   
    40     9    38 1   
    41    10    39 1   
    42    13    40 1   
    43    13    41 1   
    44    13    42 1   
    45    14    43 1   
    46    14    44 1   
    47    18    45 1   
    48    19    46 1   
    49    24    47 1   
    50    24    48 1   
    51    24    49 1   
    52    25    50 1   
    53    25    51 1   
    54    25    52 1   
    55    28    53 1   
@<TRIPOS>SUBSTRUCTURE
     1 4QO         1 TEMP              0 ****  ****    0 ROOT
