@<TRIPOS>MOLECULE
4QO
   54    55     1     0     0
SMALL
bcc


@<TRIPOS>ATOM
      1 C18          0.0000     0.0000     0.0000 ca         1 4QO      -0.080000
      2 C17          1.3900     0.0000     0.0000 ca         1 4QO      -0.074400
      3 C19         -0.6960     0.0050     1.1940 ca         1 4QO      -0.088000
      4 C11          0.1980    -0.6970    -4.9010 c3         1 4QO      -0.029100
      5 C12          1.5940    -2.7090    -4.4080 c3         1 4QO      -0.029100
      6 C1           3.8260    -0.6730    -5.7140 ca         1 4QO      -0.104000
      7 C2           2.4740    -0.9060    -5.8650 ca         1 4QO      -0.098300
      8 C3           1.9000    -0.8710    -7.1220 ca         1 4QO      -0.096000
      9 C4           2.6740    -0.6040    -8.2360 ca         1 4QO      -0.093000
     10 C5           4.0270    -0.3690    -8.1000 ca         1 4QO      -0.090000
     11 C6           4.6120    -0.3960    -6.8330 ca         1 4QO      -0.038800
     12 C7           6.0610    -0.1450    -6.6780 ce         1 4QO      -0.084400
     13 C8           6.6290     1.2100    -7.0100 c3         1 4QO       0.061100
     14 C9           6.8590    -1.1120    -6.2480 c2         1 4QO      -0.161000
     15 C10          1.6220    -1.2000    -4.6560 c3         1 4QO       0.093700
     16 C14          1.5720    -0.6230    -2.2900 c          1 4QO       0.573100
     17 O1           0.5520    -1.2760    -2.1820 o          1 4QO      -0.692100
     18 N2           2.0890     0.0010    -1.2130 ns         1 4QO      -0.057100
     19 C22          2.0830     0.0000     1.2000 ca         1 4QO      -0.119000
     20 C21          1.3820    -0.0010     2.4060 ca         1 4QO      -0.125600
     21 C23          2.1160    -0.0000     3.6890 c          1 4QO       0.608700
     22 O2           1.8240    -0.8020     4.5560 o          1 4QO      -0.630100
     23 N3           3.1060     0.8880     3.9000 n          1 4QO      -0.157800
     24 C26          3.9170     0.8070     5.1170 c3         1 4QO       0.077800
     25 C27          3.3740     1.9350     2.9100 c3         1 4QO       0.077800
     26 C20         -0.0150     0.0110     2.3960 ca         1 4QO      -0.012600
     27 Cl1         -0.8940     0.0190     3.8920 cl         1 4QO       0.006600
     28 N1           2.1840    -0.5220    -3.4860 ns         1 4QO      -0.217900
     29 H1          -0.5400    -0.0040    -0.9390 ha         1 4QO       0.146000
     30 H2          -1.7790     0.0100     1.1880 ha         1 4QO       0.118000
     31 H3          -0.3920    -0.8320    -4.0030 hc         1 4QO       0.023367
     32 H4          -0.2480    -1.2570    -5.7140 hc         1 4QO       0.023367
     33 H5           0.2260     0.3550    -5.1600 hc         1 4QO       0.023367
     34 H6           2.4220    -2.9850    -3.7660 hc         1 4QO       0.023367
     35 H7           1.6800    -3.2330    -5.3520 hc         1 4QO       0.023367
     36 H8           0.6600    -2.9790    -3.9290 hc         1 4QO       0.023367
     37 H10          0.8380    -1.0550    -7.2350 ha         1 4QO       0.119000
     38 H11          2.2180    -0.5810    -9.2190 ha         1 4QO       0.105000
     39 H12          4.6320    -0.1580    -8.9730 ha         1 4QO       0.109000
     40 H13          5.8230     1.9280    -7.1000 hc         1 4QO       0.008367
     41 H14          7.3040     1.5220    -6.2220 hc         1 4QO       0.008367
     42 H15          7.1690     1.1560    -7.9480 hc         1 4QO       0.008367
     43 H16          6.4500    -2.0860    -6.0090 ha         1 4QO       0.090500
     44 H17          7.9210    -0.9280    -6.1340 ha         1 4QO       0.090500
     45 H18          2.9660     0.4790    -1.2840 hn         1 4QO       0.160500
     46 H19          3.1670    -0.0000     1.2010 ha         1 4QO       0.115000
     47 H20          4.9560     0.6580     4.8500 h1         1 4QO       0.012533
     48 H21          3.5760    -0.0240     5.7230 h1         1 4QO       0.012533
     49 H22          3.8170     1.7280     5.6790 h1         1 4QO       0.012533
     50 H23          2.4400     2.2610     2.4680 h1         1 4QO       0.012533
     51 H24          3.8560     2.7750     3.3940 h1         1 4QO       0.012533
     52 H25          4.0220     1.5430     2.1360 h1         1 4QO       0.012533
     53 H26          3.0040     0.0440    -3.5810 hn         1 4QO       0.177500
     54 H9           4.2740    -0.6980    -4.7280 ha         1 4QO       0.110000
@<TRIPOS>BOND
     1     1     2 ar  
     2     1     3 ar  
     3     1    29 1   
     4     2    18 1   
     5     2    19 ar  
     6     3    26 ar  
     7     3    30 1   
     8     4    15 1   
     9     4    31 1   
    10     4    32 1   
    11     4    33 1   
    12     5    15 1   
    13     5    34 1   
    14     5    35 1   
    15     5    36 1   
    16     6     7 ar  
    17     6    11 ar  
    18     6    54 1   
    19     7     8 ar  
    20     7    15 1   
    21     8     9 ar  
    22     8    37 1   
    23     9    10 ar  
    24     9    38 1   
    25    10    11 ar  
    26    10    39 1   
    27    11    12 1   
    28    12    13 1   
    29    12    14 2   
    30    13    40 1   
    31    13    41 1   
    32    13    42 1   
    33    14    43 1   
    34    14    44 1   
    35    15    28 1   
    36    16    17 2   
    37    16    18 1   
    38    16    28 1   
    39    18    45 1   
    40    19    20 ar  
    41    19    46 1   
    42    20    21 1   
    43    20    26 ar  
    44    21    22 2   
    45    21    23 1   
    46    23    24 1   
    47    23    25 1   
    48    24    47 1   
    49    24    48 1   
    50    24    49 1   
    51    25    50 1   
    52    25    51 1   
    53    25    52 1   
    54    26    27 1   
    55    28    53 1   
@<TRIPOS>SUBSTRUCTURE
     1 4QO         1 TEMP              0 ****  ****    0 ROOT
