@<TRIPOS>MOLECULE
4QQ
   59    61     1     0     0
SMALL
bcc


@<TRIPOS>ATOM
      1 S            0.0000     0.0000     0.0000 sy         1 4QQ       1.041200
      2 O1S          1.4210     0.0000     0.0000 o          1 4QQ      -0.593300
      3 O2S         -0.7770     0.0000     1.1900 o          1 4QQ      -0.593300
      4 C1          -0.4980     1.4180    -0.9200 ca         1 4QQ      -0.162500
      5 C2          -1.7470     1.9740    -0.7110 ca         1 4QQ       0.013500
      6 C3          -2.1370     3.0850    -1.4320 ca         1 4QQ      -0.130000
      7 C4          -1.2800     3.6430    -2.3630 ca         1 4QQ      -0.022300
      8 C5          -0.0320     3.0870    -2.5720 ca         1 4QQ      -0.130000
      9 C6           0.3610     1.9780    -1.8460 ca         1 4QQ       0.013500
     10 C           -1.7070     4.8550    -3.1500 c3         1 4QQ       0.053200
     11 N1          -0.3180    -1.0170    -4.5320 n          1 4QQ      -0.144800
     12 C21         -1.1930    -0.5320    -5.6090 c3         1 4QQ       0.041500
     13 C31         -0.4580     0.5680    -6.3820 c3         1 4QQ      -0.040900
     14 C41          0.8930     0.0340    -6.8630 c3         1 4QQ      -0.025400
     15 C51          1.7460    -0.3600    -5.6540 c3         1 4QQ      -0.040900
     16 C61          1.0360    -1.4700    -4.8730 c3         1 4QQ       0.041500
     17 N           -0.4680    -1.3340    -0.8630 n7         1 4QQ      -0.559100
     18 CA           0.1320    -1.6050    -2.1720 c3         1 4QQ       0.126500
     19 C7          -0.7500    -1.0410    -3.2560 c          1 4QQ       0.555100
     20 O           -1.8490    -0.6070    -2.9790 o          1 4QQ      -0.625100
     21 CB           0.2720    -3.1170    -2.3660 c3         1 4QQ      -0.000100
     22 CG           1.2560    -3.6630    -1.3630 ca         1 4QQ      -0.020300
     23 CD1          0.8120    -4.0940    -0.1260 ca         1 4QQ      -0.063000
     24 CD2          2.5990    -3.7350    -1.6850 ca         1 4QQ      -0.063000
     25 CE1          1.7080    -4.5950     0.7970 ca         1 4QQ      -0.062500
     26 CE2          3.5050    -4.2340    -0.7720 ca         1 4QQ      -0.062500
     27 CZ           3.0640    -4.6650     0.4790 ca         1 4QQ      -0.233900
     28 CF           4.0310    -5.2010     1.4640 ce         1 4QQ       0.214800
     29 NG1          3.6140    -5.6090     2.6300 n2         1 4QQ      -0.492100
     30 NG2          5.3690    -5.2700     1.1490 nz         1 4QQ       0.190400
     31 H3          -2.4110     1.5500     0.0330 ha         1 4QQ       0.116000
     32 H4          -3.1160     3.5210    -1.2690 ha         1 4QQ       0.114500
     33 H5           0.6410     3.5240    -3.3000 ha         1 4QQ       0.114500
     34 H6           1.3430     1.5480    -2.0040 ha         1 4QQ       0.116000
     35 H7          -2.4830     4.5740    -3.8530 hc         1 4QQ       0.015033
     36 H8          -2.0890     5.6090    -2.4730 hc         1 4QQ       0.015033
     37 H9          -0.8570     5.2520    -3.6910 hc         1 4QQ       0.015033
     38 H10         -2.1040    -0.1290    -5.1830 h1         1 4QQ       0.030450
     39 H11         -1.4300    -1.3490    -6.2800 h1         1 4QQ       0.030450
     40 H12         -1.0530     0.8660    -7.2370 hc         1 4QQ       0.024950
     41 H13         -0.2980     1.4200    -5.7320 hc         1 4QQ       0.024950
     42 H14          1.4040     0.8030    -7.4280 hc         1 4QQ       0.022200
     43 H15          0.7330    -0.8360    -7.4890 hc         1 4QQ       0.022200
     44 H16          1.8820     0.5020    -5.0120 hc         1 4QQ       0.024950
     45 H17          2.7100    -0.7190    -5.9950 hc         1 4QQ       0.024950
     46 H18          1.5870    -1.6810    -3.9640 h1         1 4QQ       0.030450
     47 H19          0.9770    -2.3620    -5.4840 h1         1 4QQ       0.030450
     48 H20          1.1100    -1.1420    -2.2250 h1         1 4QQ       0.061700
     49 H21          0.6280    -3.3210    -3.3680 hc         1 4QQ       0.044200
     50 H22         -0.6910    -3.5900    -2.2210 hc         1 4QQ       0.044200
     51 H23         -0.2420    -4.0390     0.1190 ha         1 4QQ       0.127000
     52 H24          2.9410    -3.3990    -2.6560 ha         1 4QQ       0.127000
     53 H25          1.3580    -4.9310     1.7660 ha         1 4QQ       0.097500
     54 H26          4.5570    -4.2880    -1.0250 ha         1 4QQ       0.097500
     55 HG12         2.6420    -5.5600     2.8610 hn         1 4QQ       0.382400
     56 HG22         5.7190    -4.3480     0.9740 hn         1 4QQ       0.221133
     57 HG21         5.4910    -5.8340     0.3310 hn         1 4QQ       0.221133
     58 H           -1.1880    -1.9320    -0.5090 hn         1 4QQ       0.354800
     59 HG23         5.8730    -5.6680     1.9160 hn         1 4QQ       0.221133
@<TRIPOS>BOND
     1     1     2 2   
     2     1     3 2   
     3     1     4 1   
     4     1    17 1   
     5     4     5 ar  
     6     4     9 ar  
     7     5     6 ar  
     8     5    31 1   
     9     6     7 ar  
    10     6    32 1   
    11     7     8 ar  
    12     7    10 1   
    13     8     9 ar  
    14     8    33 1   
    15     9    34 1   
    16    10    35 1   
    17    10    36 1   
    18    10    37 1   
    19    11    12 1   
    20    11    16 1   
    21    11    19 1   
    22    12    13 1   
    23    12    38 1   
    24    12    39 1   
    25    13    14 1   
    26    13    40 1   
    27    13    41 1   
    28    14    15 1   
    29    14    42 1   
    30    14    43 1   
    31    15    16 1   
    32    15    44 1   
    33    15    45 1   
    34    16    46 1   
    35    16    47 1   
    36    17    18 1   
    37    17    58 1   
    38    18    19 1   
    39    18    21 1   
    40    18    48 1   
    41    19    20 2   
    42    21    22 1   
    43    21    49 1   
    44    21    50 1   
    45    22    23 ar  
    46    22    24 ar  
    47    23    25 ar  
    48    23    51 1   
    49    24    26 ar  
    50    24    52 1   
    51    25    27 ar  
    52    25    53 1   
    53    26    27 ar  
    54    26    54 1   
    55    27    28 1   
    56    28    29 2   
    57    28    30 1   
    58    29    55 1   
    59    30    56 1   
    60    30    57 1   
    61    30    59 1   
@<TRIPOS>SUBSTRUCTURE
     1 4QQ         1 TEMP              0 ****  ****    0 ROOT
