@<TRIPOS>MOLECULE
molecule
   59    61     1     0     0
SMALL
bcc


@<TRIPOS>ATOM
      1 S            0.0000     0.0000     0.0000 sy         1 4QQ       1.424200
      2 O1S          1.4210     0.0000     0.0000 o          1 4QQ      -0.642300
      3 O2S         -0.7770     0.0000     1.1900 o          1 4QQ      -0.642300
      4 C1          -0.4980     1.4180    -0.9200 ca         1 4QQ      -0.317500
      5 C2          -1.7470     1.9740    -0.7110 ca         1 4QQ      -0.018500
      6 C3          -2.1370     3.0850    -1.4320 ca         1 4QQ      -0.148000
      7 C4          -1.2800     3.6430    -2.3630 ca         1 4QQ      -0.016300
      8 C5          -0.0320     3.0870    -2.5720 ca         1 4QQ      -0.148000
      9 C6           0.3610     1.9780    -1.8460 ca         1 4QQ      -0.018500
     10 C           -1.7070     4.8550    -3.1500 c3         1 4QQ      -0.059800
     11 N1          -0.3180    -1.0170    -4.5320 n          1 4QQ      -0.485800
     12 C21         -1.1930    -0.5320    -5.6090 c3         1 4QQ       0.101000
     13 C31         -0.4580     0.5680    -6.3820 c3         1 4QQ      -0.099400
     14 C41          0.8930     0.0340    -6.8630 c3         1 4QQ      -0.080400
     15 C51          1.7460    -0.3600    -5.6540 c3         1 4QQ      -0.099400
     16 C61          1.0360    -1.4700    -4.8730 c3         1 4QQ       0.101000
     17 N           -0.4680    -1.3340    -0.8630 n7         1 4QQ      -0.892100
     18 CA           0.1320    -1.6050    -2.1720 c3         1 4QQ       0.176500
     19 C7          -0.7500    -1.0410    -3.2560 c          1 4QQ       0.634100
     20 O           -1.8490    -0.6070    -2.9790 o          1 4QQ      -0.579100
     21 CB           0.2720    -3.1170    -2.3660 c3         1 4QQ      -0.054100
     22 CG           1.2560    -3.6630    -1.3630 ca         1 4QQ      -0.016300
     23 CD1          0.8120    -4.0940    -0.1260 ca         1 4QQ      -0.108000
     24 CD2          2.5990    -3.7350    -1.6850 ca         1 4QQ      -0.108000
     25 CE1          1.7080    -4.5950     0.7970 ca         1 4QQ      -0.075500
     26 CE2          3.5050    -4.2340    -0.7720 ca         1 4QQ      -0.075500
     27 CZ           3.0640    -4.6650     0.4790 ca         1 4QQ      -0.198900
     28 CF           4.0310    -5.2010     1.4640 ce         1 4QQ       0.543800
     29 NG1          3.6140    -5.6090     2.6300 n2         1 4QQ      -0.682100
     30 NG2          5.3690    -5.2700     1.1490 nz         1 4QQ      -0.801600
     31 H3          -2.4110     1.5500     0.0330 ha         1 4QQ       0.144000
     32 H4          -3.1160     3.5210    -1.2690 ha         1 4QQ       0.140000
     33 H5           0.6410     3.5240    -3.3000 ha         1 4QQ       0.140000
     34 H6           1.3430     1.5480    -2.0040 ha         1 4QQ       0.144000
     35 H7          -2.6590     4.6580    -3.6280 hc         1 4QQ       0.052700
     36 H8          -0.9630     5.0760    -3.9060 hc         1 4QQ       0.052700
     37 H9          -1.8070     5.7020    -2.4830 hc         1 4QQ       0.052700
     38 H10         -2.1040    -0.1290    -5.1830 h1         1 4QQ       0.054950
     39 H11         -1.4300    -1.3490    -6.2800 h1         1 4QQ       0.054950
     40 H12         -1.0530     0.8660    -7.2370 hc         1 4QQ       0.054450
     41 H13         -0.2980     1.4200    -5.7320 hc         1 4QQ       0.054450
     42 H14          0.7330    -0.8360    -7.4890 hc         1 4QQ       0.049700
     43 H15          1.4040     0.8030    -7.4280 hc         1 4QQ       0.049700
     44 H16          2.7100    -0.7190    -5.9950 hc         1 4QQ       0.054450
     45 H17          1.8820     0.5020    -5.0120 hc         1 4QQ       0.054450
     46 H18          1.5870    -1.6810    -3.9640 h1         1 4QQ       0.054950
     47 H19          0.9770    -2.3620    -5.4840 h1         1 4QQ       0.054950
     48 H20          1.1100    -1.1420    -2.2250 h1         1 4QQ       0.087700
     49 H21         -0.6910    -3.5900    -2.2210 hc         1 4QQ       0.077700
     50 H22          0.6280    -3.3210    -3.3680 hc         1 4QQ       0.077700
     51 H23         -0.2420    -4.0390     0.1190 ha         1 4QQ       0.158000
     52 H24          2.9410    -3.3990    -2.6560 ha         1 4QQ       0.158000
     53 H25          1.3580    -4.9310     1.7660 ha         1 4QQ       0.138500
     54 H26          4.5570    -4.2880    -1.0250 ha         1 4QQ       0.138500
     55 HG12         4.2670    -5.9710     3.2970 hn         1 4QQ       0.431400
     56 HG22         5.8730    -5.6730     1.9140 hn         1 4QQ       0.464800
     57 HG21         5.7180    -4.3490     0.9690 hn         1 4QQ       0.464800
     58 H           -1.1880    -1.9320    -0.5090 hn         1 4QQ       0.460800
     59 HG23         5.4930    -5.8450     0.3390 hn         1 4QQ       0.464800
@<TRIPOS>BOND
     1     1     2 2
     2     1     3 2
     3     1     4 1
     4     1    17 1
     5     4     5 ar
     6     4     9 ar
     7     5     6 ar
     8     6     7 ar
     9     7     8 ar
    10     7    10 1
    11     8     9 ar
    12    11    12 1
    13    11    16 1
    14    11    19 1
    15    12    13 1
    16    13    14 1
    17    14    15 1
    18    15    16 1
    19    17    18 1
    20    18    19 1
    21    18    21 1
    22    19    20 2
    23    21    22 1
    24    22    23 ar
    25    22    24 ar
    26    23    25 ar
    27    24    26 ar
    28    25    27 ar
    29    26    27 ar
    30    27    28 1
    31    28    29 2
    32    28    30 1
    33     5    31 1
    34     6    32 1
    35     8    33 1
    36     9    34 1
    37    10    35 1
    38    10    36 1
    39    10    37 1
    40    12    38 1
    41    12    39 1
    42    13    40 1
    43    13    41 1
    44    14    42 1
    45    14    43 1
    46    15    44 1
    47    15    45 1
    48    16    46 1
    49    16    47 1
    50    17    58 1
    51    18    48 1
    52    21    49 1
    53    21    50 1
    54    23    51 1
    55    24    52 1
    56    25    53 1
    57    26    54 1
    58    29    55 1
    59    30    56 1
    60    30    57 1
    61    59    30 1
@<TRIPOS>SUBSTRUCTURE
     1 4QQ         1 TEMP              0 ****  ****    0 ROOT
