@<TRIPOS>MOLECULE
molecule
   18    18     1     0     0
SMALL
bcc


@<TRIPOS>ATOM
      1 CAI          0.0000     0.0000     0.0000 ca         1 4QT       0.205600
      2 CAJ          1.3890     0.0000     0.0000 ca         1 4QT      -0.004900
      3 CAK         -0.6940     0.0020     1.2030 ca         1 4QT      -0.004900
      4 CAL          1.3890     0.0010     2.4030 ca         1 4QT       0.005100
      5 CAM          2.0820     0.0000     1.2010 ca         1 4QT       0.125100
      6 CAN          0.0000     0.0020     2.4030 ca         1 4QT       0.125100
      7 NAA         -0.6990     0.0060    -1.2110 nv         1 4QT      -0.977200
      8 OAB          4.0410     1.3400     1.2000 oh         1 4QT      -0.406000
      9 OAC         -0.9770    -1.3380     4.1000 oh         1 4QT      -0.406000
     10 OAG          3.4420    -0.0010     1.2010 os         1 4QT      -0.139600
     11 OAH         -0.6780     0.0030     3.5810 os         1 4QT      -0.139600
     12 BrD          2.3340    -0.0030    -1.6380 br         1 4QT      -0.041100
     13 BrE         -2.5840     0.0040     1.2040 br         1 4QT      -0.041100
     14 BrF          2.3340     0.0010     4.0400 br         1 4QT      -0.032100
     15 HAD         -0.9520    -0.8590    -1.6470 hn         1 4QT       0.445800
     16 HAC         -0.9470     0.8750    -1.6410 hn         1 4QT       0.445800
     17 HAA          4.9810     1.2650     1.2010 ho         1 4QT       0.420000
     18 HAB         -1.4470    -1.2620     4.9130 ho         1 4QT       0.420000
@<TRIPOS>BOND
     1     1     2 ar
     2     1     3 ar
     3     1     7 1
     4     2     5 ar
     5     2    12 1
     6     3     6 ar
     7     3    13 1
     8     4     5 ar
     9     4     6 ar
    10     4    14 1
    11     5    10 1
    12     6    11 1
    13     8    10 1
    14     9    11 1
    15     7    15 1
    16     7    16 1
    17     8    17 1
    18     9    18 1
@<TRIPOS>SUBSTRUCTURE
     1 4QT         1 TEMP              0 ****  ****    0 ROOT
