@<TRIPOS>MOLECULE
4QV
   30    33     1     0     0
SMALL
bcc


@<TRIPOS>ATOM
      1 OAA          0.0000     0.0000     0.0000 o          1 4QV      -0.735500
      2 CAB          1.2160     0.0000     0.0000 c          1 4QV       0.551500
      3 NAK          1.9910     0.0000     1.1010 ns         1 4QV       0.032900
      4 CAJ          3.3260    -0.0000     0.7000 ca         1 4QV      -0.146400
      5 CAI          4.5260    -0.0000     1.3930 ca         1 4QV      -0.136000
      6 CAG          5.7240     0.0000     0.6970 ca         1 4QV       0.141100
      7 OAH          6.9020    -0.0000     1.3740 oh         1 4QV      -0.498100
      8 CAF          5.7230     0.0000    -0.6930 ca         1 4QV      -0.139000
      9 CAE          4.5290     0.0000    -1.3870 ca         1 4QV      -0.032000
     10 CAD          3.3280     0.0000    -0.6970 ca         1 4QV      -0.177400
     11 NAC          1.9910    -0.0050    -1.1010 n          1 4QV       0.236500
     12 CAL          1.5400    -0.0110    -2.4120 cc         1 4QV       0.145400
     13 NAM          0.2270    -0.0130    -2.7890 na         1 4QV       0.269700
     14 CAN          0.1970    -0.0190    -4.1730 ca         1 4QV      -0.269200
     15 CAT         -0.8210    -0.0230    -5.1130 ca         1 4QV      -0.080000
     16 CAS         -0.5140    -0.0290    -6.4580 ca         1 4QV      -0.094000
     17 CAR          0.8080    -0.0320    -6.8770 ca         1 4QV      -0.113000
     18 CAQ          1.8330    -0.0290    -5.9570 ca         1 4QV      -0.047000
     19 CAO          1.5390    -0.0210    -4.5910 ca         1 4QV       0.079400
     20 NAP          2.3080    -0.0110    -3.4710 nd         1 4QV      -0.556100
     21 H1           1.6640     0.0000     2.0470 hn         1 4QV       0.194500
     22 H2           4.5280     0.0800     2.4730 ha         1 4QV       0.119000
     23 H3           7.1480    -0.8870     1.5770 ho         1 4QV       0.405000
     24 H4           6.6620     0.0000    -1.2330 ha         1 4QV       0.121000
     25 H5           4.5320     0.0010    -2.4710 ha         1 4QV       0.143000
     26 H6          -0.5590    -0.1430    -2.1830 hn         1 4QV       0.164700
     27 H7          -1.8560    -0.0210    -4.7920 ha         1 4QV       0.103000
     28 H8          -1.3110    -0.0320    -7.1920 ha         1 4QV       0.104000
     29 H9           1.0360    -0.0360    -7.9360 ha         1 4QV       0.105000
     30 H10          2.8640    -0.0310    -6.2910 ha         1 4QV       0.109000
@<TRIPOS>BOND
     1     1     2 2   
     2     2     3 1   
     3     2    11 1   
     4     3     4 1   
     5     3    21 1   
     6     4     5 ar  
     7     4    10 ar  
     8     5     6 ar  
     9     5    22 1   
    10     6     7 1   
    11     6     8 ar  
    12     7    23 1   
    13     8     9 ar  
    14     8    24 1   
    15     9    10 ar  
    16     9    25 1   
    17    10    11 1   
    18    11    12 1   
    19    12    13 1   
    20    12    20 2   
    21    13    14 1   
    22    13    26 1   
    23    14    15 ar  
    24    14    19 ar  
    25    15    16 ar  
    26    15    27 1   
    27    16    17 ar  
    28    16    28 1   
    29    17    18 ar  
    30    17    29 1   
    31    18    19 ar  
    32    18    30 1   
    33    19    20 1   
@<TRIPOS>SUBSTRUCTURE
     1 4QV         1 TEMP              0 ****  ****    0 ROOT
