@<TRIPOS>MOLECULE
4QW
   32    34     1     0     0
SMALL
bcc


@<TRIPOS>ATOM
      1 C10          0.0000     0.0000     0.0000 c3         1 4QW       0.141800
      2 C13          0.5220    -0.0010     3.6840 ca         1 4QW      -0.234200
      3 C15          1.3440    -0.6200     5.8380 ca         1 4QW      -0.227300
      4 N02          5.6220    -0.2500     1.5380 na         1 4QW       0.301100
      5 C03          6.3660    -0.3340     0.4170 cc         1 4QW       0.228400
      6 N04          5.5850    -0.2570    -0.6300 nd         1 4QW      -0.618000
      7 C05          4.3170    -0.1220    -0.2370 cd         1 4QW       0.319200
      8 C06          4.3050    -0.1200     1.1420 cc         1 4QW      -0.395400
      9 C08          1.8930     0.0000     1.4740 cf         1 4QW      -0.219800
     10 C09          1.5400     0.0000     0.0000 c3         1 4QW      -0.019200
     11 N11         -0.4020    -0.0010     1.4080 n2         1 4QW      -0.503900
     12 C12          0.6240    -0.0010     2.2040 cf         1 4QW       0.472200
     13 C14          1.4820    -0.6540     4.4620 ca         1 4QW      -0.076000
     14 C16          0.2710     0.0530     6.3950 ca         1 4QW       0.411200
     15 N17         -0.6190     0.6600     5.6350 nb         1 4QW      -0.582000
     16 C18         -0.5300     0.6550     4.3210 ca         1 4QW       0.437200
     17 H102        -0.3720     0.8900    -0.4920 h1         1 4QW       0.033200
     18 H101        -0.3720    -0.8900    -0.4930 h1         1 4QW       0.033200
     19 H151         2.0690    -1.1150     6.4730 ha         1 4QW       0.112000
     20 H011         7.1980    -0.2720     2.9130 h1         1 4QW       0.024367
     21 H012         5.7360     0.5570     3.4650 h1         1 4QW       0.024367
     22 H013         5.7760    -1.2100     3.3900 h1         1 4QW       0.024367
     23 H031         7.4430    -0.4470     0.3880 h5         1 4QW       0.023100
     24 H051         3.4520    -0.0350    -0.8840 h4         1 4QW       0.026100
     25 H071         3.2580    -0.0000     3.0870 ha         1 4QW       0.118000
     26 H092         1.9200     0.8930    -0.4820 hc         1 4QW       0.043200
     27 H091         1.9200    -0.8930    -0.4820 hc         1 4QW       0.043200
     28 H141         2.3120    -1.1740     3.9990 ha         1 4QW       0.119000
     29 H161         0.1610     0.0810     7.4730 h4         1 4QW      -0.020900
     30 H181        -1.2820     1.1650     3.7300 h4         1 4QW      -0.002900
     31 C07          3.1340    -0.0010     2.0110 ce         1 4QW      -0.021200
     32 C01          6.1150    -0.2970     2.9160 c3         1 4QW      -0.012400
@<TRIPOS>BOND
     1     1    10 1   
     2     1    11 1   
     3     1    17 1   
     4     1    18 1   
     5     2    12 1   
     6     2    13 ar  
     7     2    16 ar  
     8     3    13 ar  
     9     3    14 ar  
    10     3    19 1   
    11     4     5 1   
    12     4     8 1   
    13     4    32 1   
    14     5     6 2   
    15     5    23 1   
    16     6     7 1   
    17     7     8 2   
    18     7    24 1   
    19     8    31 1   
    20     9    10 1   
    21     9    12 1   
    22     9    31 2   
    23    10    26 1   
    24    10    27 1   
    25    11    12 2   
    26    13    28 1   
    27    14    15 ar  
    28    14    29 1   
    29    15    16 ar  
    30    16    30 1   
    31    20    32 1   
    32    21    32 1   
    33    22    32 1   
    34    25    31 1   
@<TRIPOS>SUBSTRUCTURE
     1 4QW         1 TEMP              0 ****  ****    0 ROOT
