@<TRIPOS>MOLECULE
molecule
   32    34     1     0     0
SMALL
bcc


@<TRIPOS>ATOM
      1 C10          0.0000     0.0000     0.0000 c3         1 4QW       0.089800
      2 C13          0.5220    -0.0010     3.6840 ca         1 4QW      -0.239200
      3 C15          1.3440    -0.6200     5.8380 ca         1 4QW      -0.261300
      4 N02          5.6220    -0.2500     1.5380 na         1 4QW      -0.180900
      5 C03          6.3660    -0.3340     0.4170 cc         1 4QW       0.408400
      6 N04          5.5850    -0.2570    -0.6300 nd         1 4QW      -0.698000
      7 C05          4.3170    -0.1220    -0.2370 cd         1 4QW       0.330200
      8 C06          4.3050    -0.1200     1.1420 cc         1 4QW      -0.221400
      9 C08          1.8930     0.0000     1.4740 cf         1 4QW      -0.218800
     10 C09          1.5400     0.0000     0.0000 c3         1 4QW      -0.083200
     11 N11         -0.4020    -0.0010     1.4080 n2         1 4QW      -0.558900
     12 C12          0.6240    -0.0010     2.2040 cf         1 4QW       0.488200
     13 C14          1.4820    -0.6540     4.4620 ca         1 4QW      -0.087000
     14 C16          0.2710     0.0530     6.3950 ca         1 4QW       0.428200
     15 N17         -0.6190     0.6600     5.6350 nb         1 4QW      -0.690000
     16 C18         -0.5300     0.6550     4.3210 ca         1 4QW       0.457200
     17 H102        -0.3720    -0.8900    -0.4930 h1         1 4QW       0.073200
     18 H101        -0.3720     0.8900    -0.4920 h1         1 4QW       0.073200
     19 H151         2.0690    -1.1150     6.4730 ha         1 4QW       0.138000
     20 H011         5.7760    -1.2100     3.3900 h1         1 4QW       0.055033
     21 H012         7.1980    -0.2730     2.9130 h1         1 4QW       0.055033
     22 H013         5.7360     0.5570     3.4650 h1         1 4QW       0.055033
     23 H031         7.4430    -0.4470     0.3880 h5         1 4QW       0.065100
     24 H051         3.4520    -0.0350    -0.8840 h4         1 4QW       0.054100
     25 H071         3.2580    -0.0000     3.0870 ha         1 4QW       0.138000
     26 H092         1.9200     0.8930    -0.4820 hc         1 4QW       0.070200
     27 H091         1.9200    -0.8930    -0.4820 hc         1 4QW       0.070200
     28 H141         2.3120    -1.1740     3.9990 ha         1 4QW       0.143000
     29 H161         0.1610     0.0810     7.4730 h4         1 4QW       0.024100
     30 H181        -1.2820     1.1650     3.7300 h4         1 4QW       0.043100
     31 C07          3.1340    -0.0010     2.0110 ce         1 4QW      -0.052200
     32 C01          6.1150    -0.2970     2.9160 c3         1 4QW       0.031600
@<TRIPOS>BOND
     1     5     6 2
     2     5     4 1
     3     6     7 1
     4    32     4 1
     5     4     8 1
     6     7     8 2
     7    10     1 1
     8    10     9 1
     9     8    31 1
    10     1    11 1
    11     9    31 2
    12     9    12 1
    13    11    12 2
    14    12     2 1
    15     2    13 ar
    16     2    16 ar
    17    13     3 ar
    18    16    15 ar
    19     3    14 ar
    20    15    14 ar
    21     1    17 1
    22     1    18 1
    23     3    19 1
    24    32    20 1
    25    32    21 1
    26    32    22 1
    27     5    23 1
    28     7    24 1
    29    31    25 1
    30    10    26 1
    31    10    27 1
    32    13    28 1
    33    14    29 1
    34    16    30 1
@<TRIPOS>SUBSTRUCTURE
     1 4QW         1 TEMP              0 ****  ****    0 ROOT
