@<TRIPOS>MOLECULE
4QX
   35    36     1     0     0
SMALL
bcc


@<TRIPOS>ATOM
      1 C1           0.0000     0.0000     0.0000 c3         1 4QX       0.017700
      2 C2           1.5300     0.0000     0.0000 c3         1 4QX      -0.011600
      3 C3          -0.6170    -1.1640     2.0500 c          1 4QX       0.492900
      4 C7          -2.4680    -4.3100     5.6240 ca         1 4QX      -0.120500
      5 C8          -2.8260    -5.3150     6.5000 ca         1 4QX      -0.076500
      6 C9          -2.1740    -6.5360     6.4610 ca         1 4QX      -0.054600
      7 C10         -1.1610    -6.7520     5.5420 ca         1 4QX      -0.076500
      8 C11         -0.8000    -5.7510     4.6620 ca         1 4QX      -0.120500
      9 Cl          -2.6260    -7.7960     7.5650 cl         1 4QX      -0.034400
     10 C6          -1.4520    -4.5250     4.7000 ca         1 4QX      -0.004400
     11 C4          -1.2490    -2.2510     4.1230 cc         1 4QX       0.472400
     12 N2          -1.6920    -1.8220     5.2850 nd         1 4QX      -0.797000
     13 C5          -1.8080    -0.4890     5.2600 cd         1 4QX       0.737900
     14 N4          -2.2490     0.3030     6.3190 nv         1 4QX      -0.491500
     15 N3          -1.4400    -0.0450     4.0830 nc         1 4QX      -0.803800
     16 N1          -1.0660    -1.1640     3.3210 n          1 4QX       0.324500
     17 O           -0.3280    -2.2120     1.5070 o          1 4QX      -0.711100
     18 N           -0.4880     0.0000     1.3810 ns         1 4QX      -0.162900
     19 C           -0.5100     1.2500    -0.7210 c3         1 4QX      -0.011600
     20 H3          -0.3610    -0.8900    -0.5010 h1         1 4QX       0.054700
     21 H6           1.8910     0.8020     0.6320 hc         1 4QX       0.011867
     22 H5           1.8910    -0.9490     0.3780 hc         1 4QX       0.011867
     23 H4           1.8910     0.1470    -1.0110 hc         1 4QX       0.011867
     24 H11         -2.9790    -3.3560     5.6560 ha         1 4QX       0.131500
     25 H12         -3.6170    -5.1480     7.2210 ha         1 4QX       0.113000
     26 H13         -0.6520    -7.7080     5.5120 ha         1 4QX       0.113000
     27 H14         -0.0080    -5.9210     3.9430 ha         1 4QX       0.131500
     28 H10         -0.5420    -3.8550     2.9410 hn         1 4QX       0.336800
     29 H8          -2.3590    -0.0970     7.2300 hn         1 4QX       0.274800
     30 H9          -2.4690     1.2670     6.1650 hn         1 4QX       0.274800
     31 H7          -0.7650     0.8590     1.8130 hn         1 4QX       0.199500
     32 H1          -1.5930     1.2650    -0.6970 hc         1 4QX       0.011867
     33 H           -0.1720     1.2370    -1.7500 hc         1 4QX       0.011867
     34 H2          -0.1260     2.1340    -0.2260 hc         1 4QX       0.011867
     35 N5          -1.0060    -3.5660     3.7790 nu         1 4QX      -0.269300
@<TRIPOS>BOND
     1     1     2 1   
     2     1    18 1   
     3     1    19 1   
     4     1    20 1   
     5     2    21 1   
     6     2    22 1   
     7     2    23 1   
     8     3    16 1   
     9     3    17 2   
    10     3    18 1   
    11     4     5 ar  
    12     4    10 ar  
    13     4    24 1   
    14     5     6 ar  
    15     5    25 1   
    16     6     7 ar  
    17     6     9 1   
    18     7     8 ar  
    19     7    26 1   
    20     8    10 ar  
    21     8    27 1   
    22    10    35 1   
    23    11    12 2   
    24    11    16 1   
    25    11    35 1   
    26    12    13 1   
    27    13    14 1   
    28    13    15 2   
    29    14    29 1   
    30    14    30 1   
    31    15    16 1   
    32    18    31 1   
    33    19    32 1   
    34    19    33 1   
    35    19    34 1   
    36    28    35 1   
@<TRIPOS>SUBSTRUCTURE
     1 4QX         1 TEMP              0 ****  ****    0 ROOT
