@<TRIPOS>MOLECULE
molecule
   35    36     1     0     0
SMALL
bcc


@<TRIPOS>ATOM
      1 C1           0.0000     0.0000     0.0000 c3         1 4QX       0.120700
      2 C2           1.5300     0.0000     0.0000 c3         1 4QX      -0.108600
      3 C3          -0.6170    -1.1640     2.0500 c          1 4QX       0.709900
      4 C7          -2.4680    -4.3100     5.6240 ca         1 4QX      -0.146000
      5 C8          -2.8260    -5.3150     6.5000 ca         1 4QX      -0.101000
      6 C9          -2.1740    -6.5360     6.4610 ca         1 4QX       0.004400
      7 C10         -1.1610    -6.7520     5.5420 ca         1 4QX      -0.101000
      8 C11         -0.8000    -5.7510     4.6620 ca         1 4QX      -0.146000
      9 Cl          -2.6260    -7.7960     7.5650 cl         1 4QX      -0.114400
     10 C6          -1.4520    -4.5250     4.7000 ca         1 4QX       0.155600
     11 C4          -1.2490    -2.2510     4.1230 cc         1 4QX       0.784400
     12 N2          -1.6920    -1.8220     5.2850 nd         1 4QX      -0.846000
     13 C5          -1.8080    -0.4890     5.2600 cd         1 4QX       0.882900
     14 N4          -2.2490     0.3030     6.3190 nv         1 4QX      -0.995500
     15 N3          -1.4400    -0.0450     4.0830 nc         1 4QX      -0.644800
     16 N1          -1.0660    -1.1640     3.3210 n          1 4QX      -0.084500
     17 O           -0.3280    -2.2120     1.5070 o          1 4QX      -0.656100
     18 N           -0.4880     0.0000     1.3810 ns         1 4QX      -0.563900
     19 C           -0.5100     1.2500    -0.7210 c3         1 4QX      -0.108600
     20 H3          -0.3610    -0.8900    -0.5010 h1         1 4QX       0.077700
     21 H6           1.8910     0.8020     0.6320 hc         1 4QX       0.044867
     22 H5           1.8910    -0.9490     0.3780 hc         1 4QX       0.044867
     23 H4           1.8910     0.1470    -1.0110 hc         1 4QX       0.044867
     24 H11         -2.9790    -3.3560     5.6560 ha         1 4QX       0.157500
     25 H12         -3.6170    -5.1480     7.2210 ha         1 4QX       0.145500
     26 H13         -0.6520    -7.7080     5.5120 ha         1 4QX       0.145500
     27 H14         -0.0080    -5.9210     3.9430 ha         1 4QX       0.157500
     28 H10         -0.5420    -3.8550     2.9410 hn         1 4QX       0.503800
     29 H8          -2.3590    -0.0970     7.2300 hn         1 4QX       0.451800
     30 H9          -2.4690     1.2670     6.1650 hn         1 4QX       0.451800
     31 H7          -0.7650     0.8590     1.8130 hn         1 4QX       0.338500
     32 H1          -1.5930     1.2650    -0.6970 hc         1 4QX       0.044867
     33 H           -0.1720     1.2370    -1.7500 hc         1 4QX       0.044867
     34 H2          -0.1260     2.1340    -0.2260 hc         1 4QX       0.044867
     35 N5          -1.0060    -3.5660     3.7790 nu         1 4QX      -0.742300
@<TRIPOS>BOND
     1     9     6 1
     2     6     7 ar
     3     6     5 ar
     4     7     8 ar
     5     5     4 ar
     6     8    10 ar
     7     4    10 ar
     8    10    35 1
     9    35    11 1
    10    11    12 2
    11    11    16 1
    12    12    13 1
    13    17     3 2
    14    16     3 1
    15    16    15 1
    16     3    18 1
    17    13    14 1
    18    13    15 2
    19    18     1 1
    20     1    19 1
    21     1     2 1
    22     1    20 1
    23     2    21 1
    24     2    22 1
    25     2    23 1
    26     4    24 1
    27     5    25 1
    28     7    26 1
    29     8    27 1
    30    35    28 1
    31    14    29 1
    32    14    30 1
    33    18    31 1
    34    19    32 1
    35    19    33 1
    36    19    34 1
@<TRIPOS>SUBSTRUCTURE
     1 4QX         1 TEMP              0 ****  ****    0 ROOT
