@<TRIPOS>MOLECULE
4QY
   33    33     1     0     0
SMALL
bcc


@<TRIPOS>ATOM
      1 C2           0.0000     0.0000     0.0000 c3         1 4QY      -0.034300
      2 C4           2.0310     0.0000     1.4480 c3         1 4QY       0.134100
      3 C5           1.4510    -1.2120     2.1800 c3         1 4QY       0.149100
      4 C6           1.8960    -1.1870     3.6430 c3         1 4QY       0.286400
      5 C8          -2.2180     0.3180    -3.1040 c3         1 4QY      -0.071100
      6 OAG          1.2500    -1.5640     6.6820 o          1 4QY      -0.754500
      7 PAS          1.7450    -2.6850     5.8510 p5         1 4QY       0.668900
      8 OAH          3.3300    -2.8590     6.0730 o          1 4QY      -0.754500
      9 OAC          0.9900    -4.0400     6.2810 o          1 4QY      -0.754500
     10 O6           1.4510    -2.3760     4.2980 os         1 4QY      -0.468200
     11 O4           3.4580    -0.0730     1.4600 oh         1 4QY      -0.573800
     12 C3           1.5320     0.0000     0.0000 c3         1 4QY       0.150100
     13 O3           2.0090     1.1670    -0.6710 oh         1 4QY      -0.596800
     14 O5           0.0230    -1.1670     2.1160 os         1 4QY      -0.371600
     15 C1          -0.5030    -1.2130     0.7880 c3         1 4QY       0.383900
     16 O1          -1.9310    -1.1890     0.8410 oh         1 4QY      -0.578800
     17 N2          -0.4900    -0.0750    -1.3790 ns         1 4QY      -0.175900
     18 C7          -1.7150     0.3960    -1.6860 c          1 4QY       0.562100
     19 O7          -2.4110     0.8820    -0.8200 o          1 4QY      -0.622100
     20 H1          -0.3600     0.9080     0.4680 h1         1 4QY       0.084700
     21 H2           1.7060     0.9080     1.9410 h1         1 4QY       0.025700
     22 H3           1.8030    -2.1210     1.7070 h1         1 4QY       0.012700
     23 H4           1.4680    -0.3220     4.1360 h1         1 4QY      -0.015300
     24 H5           2.9770    -1.1310     3.6910 h1         1 4QY      -0.015300
     25 H6          -1.6130     0.9560    -3.7370 hc         1 4QY       0.011367
     26 H7          -2.1540    -0.7050    -3.4550 hc         1 4QY       0.011367
     27 H8          -3.2490     0.6480    -3.1390 hc         1 4QY       0.011367
     28 H11          3.8150     0.7800     1.6430 ho         1 4QY       0.381000
     29 H12          1.8920    -0.8880    -0.5060 h1         1 4QY       0.004700
     30 H13          2.6940     0.9260    -1.2730 ho         1 4QY       0.380000
     31 H14         -0.1690    -2.1210     0.3000 h2         1 4QY      -0.027300
     32 H15         -2.2430    -1.9660     1.2740 ho         1 4QY       0.400000
     33 H16          0.0810    -0.4870    -2.0910 hn         1 4QY       0.154500
@<TRIPOS>BOND
     1     1    12 1   
     2     1    15 1   
     3     1    17 1   
     4     1    20 1   
     5     2     3 1   
     6     2    11 1   
     7     2    12 1   
     8     2    21 1   
     9     3     4 1   
    10     3    14 1   
    11     3    22 1   
    12     4    10 1   
    13     4    23 1   
    14     4    24 1   
    15     5    18 1   
    16     5    25 1   
    17     5    26 1   
    18     5    27 1   
    19     6     7 1   
    20     7     8 1   
    21     7     9 1   
    22     7    10 1   
    23    11    28 1   
    24    12    13 1   
    25    12    29 1   
    26    13    30 1   
    27    14    15 1   
    28    15    16 1   
    29    15    31 1   
    30    16    32 1   
    31    17    18 1   
    32    17    33 1   
    33    18    19 2   
@<TRIPOS>SUBSTRUCTURE
     1 4QY         1 TEMP              0 ****  ****    0 ROOT
