@<TRIPOS>MOLECULE
molecule
   42    44     1     0     0
SMALL
bcc


@<TRIPOS>ATOM
      1 C1           1.4650     0.0000     0.0000 c3         1 4QZ       0.173000
      2 C2           1.9660     0.0000     1.4220 ca         1 4QZ      -0.102300
      3 C3           3.0620    -0.7690     1.7690 ca         1 4QZ      -0.120000
      4 C7           1.3360     0.7750     2.3770 ca         1 4QZ      -0.120000
      5 C9          -2.8390    -0.9550    -2.0480 cc         1 4QZ       0.772400
      6 C10         -4.0970    -0.2070    -0.4450 cd         1 4QZ       0.877900
      7 C11         -3.3830    -1.8490    -4.2150 ca         1 4QZ       0.160600
      8 C12         -4.5630    -1.1270    -4.3100 ca         1 4QZ      -0.142000
      9 C13         -5.4990    -1.4570    -5.2720 ca         1 4QZ      -0.101500
     10 C14         -5.2580    -2.5080    -6.1400 ca         1 4QZ       0.007400
     11 C15         -4.0820    -3.2300    -6.0470 ca         1 4QZ      -0.101500
     12 C16         -3.1410    -2.9000    -5.0920 ca         1 4QZ      -0.142000
     13 Cl          -6.4380    -2.9250    -7.3430 cl         1 4QZ      -0.114400
     14 N5          -2.4340    -1.5180    -3.2420 nu         1 4QZ      -0.747300
     15 N2          -4.0810    -0.7730    -1.6580 nd         1 4QZ      -0.829000
     16 N4          -5.2420     0.1280     0.2740 nv         1 4QZ      -1.033500
     17 N3          -2.8640    -0.0190    -0.0420 nc         1 4QZ      -0.602800
     18 N1          -2.0200    -0.4940    -1.0590 n          1 4QZ      -0.085500
     19 O           -0.0650    -0.9390    -2.0110 o          1 4QZ      -0.652100
     20 N            0.0000     0.0000     0.0000 ns         1 4QZ      -0.562900
     21 C            1.9760     1.2480    -0.7210 c3         1 4QZ      -0.107100
     22 C6           1.7950     0.7750     3.6800 ca         1 4QZ      -0.123000
     23 C5           2.8860     0.0010     4.0290 ca         1 4QZ      -0.124000
     24 C4           3.5210    -0.7680     3.0720 ca         1 4QZ      -0.123000
     25 H1           1.8260    -0.8850    -0.5100 h1         1 4QZ       0.083700
     26 H2           3.5590    -1.3720     1.0190 ha         1 4QZ       0.133000
     27 H3           0.4800     1.3820     2.1040 ha         1 4QZ       0.133000
     28 H4          -4.7530    -0.3060    -3.6290 ha         1 4QZ       0.156500
     29 H5          -6.4210    -0.8930    -5.3470 ha         1 4QZ       0.146500
     30 H6          -3.8950    -4.0510    -6.7290 ha         1 4QZ       0.146500
     31 H7          -2.2200    -3.4650    -5.0190 ha         1 4QZ       0.156500
     32 H8          -1.4610    -1.6730    -3.4190 hn         1 4QZ       0.493800
     33 H9          -5.4300     1.0850     0.4980 hn         1 4QZ       0.449300
     34 H10         -5.8540    -0.5920     0.6030 hn         1 4QZ       0.449300
     35 H11         -0.5000     0.3370     0.7990 hn         1 4QZ       0.343500
     36 H12          2.8220     1.6560    -0.1810 hc         1 4QZ       0.048367
     37 H13          2.2820     0.9850    -1.7260 hc         1 4QZ       0.048367
     38 H14          1.1860     1.9880    -0.7660 hc         1 4QZ       0.048367
     39 H15          1.2990     1.3800     4.4300 ha         1 4QZ       0.133000
     40 H16          3.2470     0.0020     5.0500 ha         1 4QZ       0.132000
     41 H17          4.3780    -1.3730     3.3440 ha         1 4QZ       0.133000
     42 C8          -0.6730    -0.4940    -1.0580 c          1 4QZ       0.709900
@<TRIPOS>BOND
     1    13    10 1   
     2    10    11 ar  
     3    10     9 ar  
     4    11    12 ar  
     5     9     8 ar  
     6    12     7 ar  
     7     8     7 ar  
     8     7    14 1   
     9    14     5 1   
    10     5    15 2   
    11     5    18 1   
    12    15     6 1   
    13    19    42 2   
    14    18    42 1   
    15    18    17 1   
    16    42    20 1   
    17     6    16 1   
    18     6    17 2   
    19    20     1 1   
    20     1     2 1   
    21     1    21 1   
    22     4     2 ar  
    23     4    22 ar  
    24     2     3 ar  
    25    22    23 ar  
    26     3    24 ar  
    27    23    24 ar  
    28     1    25 1   
    29     3    26 1   
    30     4    27 1   
    31     8    28 1   
    32     9    29 1   
    33    11    30 1   
    34    12    31 1   
    35    14    32 1   
    36    16    33 1   
    37    16    34 1   
    38    20    35 1   
    39    21    36 1   
    40    21    37 1   
    41    21    38 1   
    42    22    39 1   
    43    23    40 1   
    44    24    41 1   
@<TRIPOS>SUBSTRUCTURE
     1 4QZ         1 TEMP              0 ****  ****    0 ROOT
