@<TRIPOS>MOLECULE
molecule
   38    39     1     0     0
SMALL
bcc


@<TRIPOS>ATOM
      1 C1           0.0000     0.0000     0.0000 ca         1 4R0      -0.053300
      2 C2           1.3810     0.0000     0.0000 ca         1 4R0      -0.156000
      3 C3           2.0740     0.0000     1.2040 ca         1 4R0       0.164600
      4 C7           4.1610     0.5890     2.2490 cc         1 4R0       0.787400
      5 C8           4.5960     1.6950     4.0650 cd         1 4R0       0.884900
      6 C10          8.7330    -0.5790     1.0850 c3         1 4R0       0.121700
      7 C11          9.1030     0.3690    -0.0570 c3         1 4R0      -0.109100
      8 C12          9.9850    -0.9040     1.9030 c3         1 4R0      -0.109100
      9 O            6.0740    -0.6100     0.6390 o          1 4R0      -0.658100
     10 N4           7.7370     0.0600     1.9480 ns         1 4R0      -0.562900
     11 N3           5.5130     0.5750     2.4300 n          1 4R0      -0.084500
     12 N2           5.7590     1.2970     3.6090 nc         1 4R0      -0.648800
     13 N5           4.3970     2.4460     5.2230 nv         1 4R0      -0.994500
     14 N1           3.6300     1.2680     3.2440 nd         1 4R0      -0.846000
     15 N            3.4730     0.0010     1.2070 nu         1 4R0      -0.745300
     16 C4           1.3760    -0.0000     2.4050 ca         1 4R0      -0.135000
     17 C5          -0.0050    -0.0000     2.3980 ca         1 4R0      -0.098000
     18 C6          -0.6930    -0.0000     1.1980 ca         1 4R0       0.005400
     19 Cl          -2.4290    -0.0000     1.1930 cl         1 4R0      -0.114400
     20 C           -0.7520     0.0060    -1.3050 c3         1 4R0      -0.047800
     21 H3           1.9230     0.0000    -0.9380 ha         1 4R0       0.141000
     22 H8           8.3340    -1.4990     0.6750 h1         1 4R0       0.077700
     23 H10          9.3830     1.3330     0.3500 hc         1 4R0       0.044700
     24 H9           8.2520     0.4890    -0.7170 hc         1 4R0       0.044700
     25 H11          9.9350    -0.0430    -0.6140 hc         1 4R0       0.044700
     26 H12         10.4130     0.0130     2.2890 hc         1 4R0       0.044700
     27 H14         10.7100    -1.4030     1.2720 hc         1 4R0       0.044700
     28 H13          9.7180    -1.5530     2.7290 hc         1 4R0       0.044700
     29 H7           8.0270     0.5360     2.7800 hn         1 4R0       0.339500
     30 H15          5.1770     2.6910     5.8000 hn         1 4R0       0.452300
     31 H16          3.4780     2.7640     5.4610 hn         1 4R0       0.452300
     32 H6           3.9760    -0.4240     0.4530 hn         1 4R0       0.493800
     33 H4           1.9130    -0.0000     3.3450 ha         1 4R0       0.171000
     34 H5          -0.5500    -0.0010     3.3340 ha         1 4R0       0.146000
     35 H           -1.3580     0.9020    -1.3690 hc         1 4R0       0.049367
     36 H2          -1.3920    -0.8660    -1.3570 hc         1 4R0       0.049367
     37 H1          -0.0480    -0.0130    -2.1280 hc         1 4R0       0.049367
     38 C9           6.4280    -0.0130     1.6370 c          1 4R0       0.709900
@<TRIPOS>BOND
     1    19    18 1
     2    20     1 1
     3    18     1 ar
     4    18    17 ar
     5     1     2 ar
     6    17    16 ar
     7     2     3 ar
     8    16     3 ar
     9     3    15 1
    10    15     4 1
    11     4    14 2
    12     4    11 1
    13    14     5 1
    14     9    38 2
    15    11    38 1
    16    11    12 1
    17    38    10 1
    18     5    12 2
    19     5    13 1
    20    10     6 1
    21     6     7 1
    22     6     8 1
    23     2    21 1
    24     6    22 1
    25     7    23 1
    26     7    24 1
    27     7    25 1
    28     8    26 1
    29     8    27 1
    30     8    28 1
    31    10    29 1
    32    13    30 1
    33    13    31 1
    34    15    32 1
    35    16    33 1
    36    17    34 1
    37    20    35 1
    38    20    36 1
    39    20    37 1
@<TRIPOS>SUBSTRUCTURE
     1 4R0         1 TEMP              0 ****  ****    0 ROOT
