@<TRIPOS>MOLECULE
molecule
   29    29     1     0     0
SMALL
bcc


@<TRIPOS>ATOM
      1 C2           0.0000     0.0000     0.0000 c3         1 4R1       0.050500
      2 C4           0.0810     1.1890     2.1920 c3         1 4R1       0.110100
      3 C5           1.6080     1.1430     2.1070 c3         1 4R1       0.125100
      4 C6           2.1960     1.0490     3.5160 c3         1 4R1       0.234400
      5 O1           2.0070    -1.1680    -0.6740 oh         1 4R1      -0.622800
      6 OAF          6.0990     1.2980     4.3040 o          1 4R1      -0.837833
      7 PAP          4.5690     1.0550     4.7440 p5         1 4R1       1.166900
      8 OAG          4.4320    -0.3930     5.4340 o          1 4R1      -0.837833
      9 OAB          4.1600     2.1010     5.7080 o          1 4R1      -0.837833
     10 O6           3.6210     1.1230     3.4440 os         1 4R1      -0.564200
     11 O5           2.0070     0.0000     1.3470 os         1 4R1      -0.359600
     12 C1           1.5310     0.0000     0.0000 c3         1 4R1       0.336900
     13 N2          -0.4930     0.0600    -1.3820 nz         1 4R1      -0.805600
     14 C3          -0.5020     1.2220     0.7760 c3         1 4R1       0.102100
     15 O3          -1.9290     1.1910     0.8440 oh         1 4R1      -0.617800
     16 O4          -0.3230     2.3620     2.9020 oh         1 4R1      -0.580800
     17 H1          -0.3600    -0.9030     0.4790 hx         1 4R1       0.131700
     18 H2          -0.2780     0.3070     2.7080 h1         1 4R1       0.068700
     19 H3           1.9680     2.0410     1.6200 h1         1 4R1       0.060700
     20 H4           1.9060     0.1070     3.9660 h1         1 4R1       0.042700
     21 H5           1.8220     1.8670     4.1190 h1         1 4R1       0.042700
     22 H6           2.9310    -1.0820    -0.8380 ho         1 4R1       0.451000
     23 H9           1.8900     0.8870    -0.5080 h2         1 4R1       0.026700
     24 H10         -1.4930     0.0240    -1.3820 hn         1 4R1       0.409800
     25 H11         -0.1320    -0.7170    -1.8990 hn         1 4R1       0.409800
     26 H13         -0.1780     2.1260     0.2730 h1         1 4R1       0.051700
     27 H14         -2.2760     2.0180     0.5520 ho         1 4R1       0.415000
     28 H15         -0.9450     2.1270     3.5700 ho         1 4R1       0.418000
     29 H23         -0.2080     0.9230    -1.8010 hn         1 4R1       0.409800
@<TRIPOS>BOND
     1     5    12 1
     2    13     1 1
     3    12    11 1
     4    12     1 1
     5    11     3 1
     6     1    14 1
     7     9     7 1
     8    10     7 1
     9    10     4 1
    10     3     4 1
    11     3     2 1
    12    14    15 1
    13    14     2 1
    14     7     8 1
    15     7     6 1
    16     2    16 1
    17     1    17 1
    18     2    18 1
    19     3    19 1
    20     4    20 1
    21     4    21 1
    22     5    22 1
    23    12    23 1
    24    13    24 1
    25    13    25 1
    26    14    26 1
    27    15    27 1
    28    16    28 1
    29    29    13 1
@<TRIPOS>SUBSTRUCTURE
     1 4R1         1 TEMP              0 ****  ****    0 ROOT
