@<TRIPOS>MOLECULE
molecule
   38    40     1     0     0
SMALL
bcc


@<TRIPOS>ATOM
      1 C2           0.0000     0.0000     0.0000 cc         1 4R5      -0.001800
      2 C3           1.3440     0.0000     0.0000 cd         1 4R5       0.295200
      3 C5           1.0840    -0.0000     2.2100 cc         1 4R5       0.368300
      4 C11         -6.4940     0.9440    -1.6660 ca         1 4R5      -0.175500
      5 C13         -6.3170    -1.4610    -1.7570 ca         1 4R5      -0.175500
      6 C15         -8.5670    -0.4270    -1.4760 cp         1 4R5      -0.014000
      7 C16         -9.3470     0.7200    -1.3490 ca         1 4R5      -0.143000
      8 C17        -10.7190     0.6060    -1.1950 ca         1 4R5       0.144100
      9 C18        -11.3130    -0.6480    -1.1650 ca         1 4R5      -0.211000
     10 C19        -10.5390    -1.7870    -1.2900 ca         1 4R5      -0.088000
     11 C26        -12.8910     1.5320    -0.9140 c3         1 4R5       0.128700
     12 S1          -0.5390    -0.0000     1.6770 ss         1 4R5      -0.079300
     13 N4           1.8870     0.0000     1.2010 nd         1 4R5      -0.658000
     14 N6          -0.8240     0.0050    -1.1300 ns         1 4R5      -0.445100
     15 C7          -2.1650     0.0040    -0.9860 c          1 4R5       0.783100
     16 N8          -2.9590     0.0090    -2.0760 ns         1 4R5      -0.495100
     17 C9          -4.3470    -0.1000    -1.9300 ca         1 4R5      -0.021400
     18 C10         -5.1240     1.0490    -1.8090 ca         1 4R5       0.173900
     19 C12         -7.0970    -0.3120    -1.6360 cp         1 4R5       0.030000
     20 C14         -4.9480    -1.3530    -1.9060 ca         1 4R5       0.173900
     21 C20         -9.1710    -1.6830    -1.4450 ca         1 4R5      -0.150000
     22 O21         -2.6570    -0.0010     0.1250 o          1 4R5      -0.618100
     23 F22         -4.5390     2.2660    -1.8330 f          1 4R5      -0.124400
     24 F24         -4.1920    -2.4660    -2.0230 f          1 4R5      -0.124400
     25 O25        -11.4830     1.7220    -1.0700 os         1 4R5      -0.327900
     26 H1           1.9310     0.0000    -0.9100 h4         1 4R5       0.037100
     27 H2           1.3950    -0.0000     3.2480 h5         1 4R5       0.059100
     28 H3          -7.0990     1.8380    -1.5720 ha         1 4R5       0.159000
     29 H4          -6.7840    -2.4380    -1.7360 ha         1 4R5       0.159000
     30 H5          -8.8820     1.6980    -1.3730 ha         1 4R5       0.148000
     31 H6         -12.3860    -0.7350    -1.0430 ha         1 4R5       0.138000
     32 H7         -11.0070    -2.7630    -1.2660 ha         1 4R5       0.135000
     33 H8         -13.0790     0.9500    -0.0190 h1         1 4R5       0.043033
     34 H9         -13.3780     2.4960    -0.8270 h1         1 4R5       0.043033
     35 H10        -13.2820     1.0060    -1.7760 h1         1 4R5       0.043033
     36 H11         -0.4180     0.0240    -2.0440 hn         1 4R5       0.329500
     37 H12         -2.5580     0.1220    -2.9860 hn         1 4R5       0.326500
     38 H13         -8.5680    -2.5770    -1.5440 ha         1 4R5       0.136000
@<TRIPOS>BOND
     1    24    20 1
     2    20     5 ar
     3    20    17 ar
     4    16    17 1
     5    16    15 1
     6     5    19 ar
     7    25    11 1
     8    25     8 1
     9    14    15 1
    10    14     1 1
    11    17    18 ar
    12    12     1 1
    13    12     3 1
    14     7     8 ar
    15     7     6 ar
    16    15    22 2
    17     1     2 2
    18     8     9 ar
    19    19     6 1
    20    19     4 ar
    21    18     4 ar
    22    18    23 1
    23     6    21 ar
    24     3    13 2
    25     2    13 1
    26     9    10 ar
    27    21    10 ar
    28     2    26 1
    29     3    27 1
    30     4    28 1
    31     5    29 1
    32     7    30 1
    33     9    31 1
    34    10    32 1
    35    11    33 1
    36    11    34 1
    37    11    35 1
    38    14    36 1
    39    16    37 1
    40    21    38 1
@<TRIPOS>SUBSTRUCTURE
     1 4R5         1 TEMP              0 ****  ****    0 ROOT
