@<TRIPOS>MOLECULE
molecule
   56    55     1     0     0
SMALL
bcc


@<TRIPOS>ATOM
      1 C22          0.0000     0.0000     0.0000 c3         1 4R8      -0.100100
      2 C21          1.5300     0.0000     0.0000 c3         1 4R8       0.014800
      3 C20          2.0320     0.0000     1.4210 c2         1 4R8      -0.235200
      4 C19          2.9030    -0.8980     1.8080 c2         1 4R8      -0.173200
      5 C18          3.5270    -1.8270     0.7990 c3         1 4R8       0.276000
      6 C17          5.0280    -1.7540     0.9090 c2         1 4R8      -0.171200
      7 C16          5.7290    -2.8510     1.0520 c2         1 4R8      -0.219200
      8 C15          5.0550    -4.1950     0.9410 c3         1 4R8       0.100000
      9 C14          5.7790    -5.0370    -0.0790 c2         1 4R8      -0.276200
     10 C13          6.1970    -6.2370     0.2400 c2         1 4R8      -0.120200
     11 C12          5.8050    -6.8450     1.5620 c3         1 4R8       0.168000
     12 C11          5.1890    -8.2000     1.3280 c2         1 4R8      -0.231200
     13 C10          5.6580    -9.2500     1.9580 c2         1 4R8      -0.229200
     14 C9           6.7000    -9.0800     3.0340 c3         1 4R8       0.020800
     15 C8           6.2400    -9.7940     4.3060 c3         1 4R8      -0.049200
     16 C7           7.2810    -9.6250     5.3820 c2         1 4R8      -0.220200
     17 C6           6.9470    -9.1210     6.5440 c2         1 4R8      -0.128200
     18 C5           7.9890    -8.9510     7.6200 c3         1 4R8      -0.164200
     19 C4           8.0050    -7.5170     8.0810 c          1 4R8       0.558100
     20 O3           7.2500    -6.7150     7.5870 o          1 4R8      -0.545100
     21 C3           8.9660    -7.0830     9.1580 c3         1 4R8      -0.158400
     22 C2           8.7790    -5.5910     9.4380 c3         1 4R8      -0.174400
     23 C1           9.7380    -5.1570    10.5150 c          1 4R8       0.889600
     24 O1          10.4950    -5.9590    11.0100 o          1 4R8      -0.854800
     25 O2           9.7530    -3.8800    10.9260 o          1 4R8      -0.854800
     26 H221        -0.3610    -0.9340     0.4140 hc         1 4R8       0.040367
     27 H222        -0.3610     0.8260     0.6010 hc         1 4R8       0.040367
     28 H223        -0.3610     0.1080    -1.0160 hc         1 4R8       0.040367
     29 H211         1.8920    -0.8850    -0.5110 hc         1 4R8       0.041700
     30 H212         1.8920     0.8850    -0.5110 hc         1 4R8       0.041700
     31 H20          2.5930     0.4830     0.6300 ha         1 4R8       0.116000
     32 H19          2.3980    -1.8040     1.4940 ha         1 4R8      -0.007000
     33 H181         3.2240    -1.5340    -0.1980 hc         1 4R8       0.056200
     34 H182         3.2000    -2.8420     0.9920 hc         1 4R8       0.056200
     35 H17          4.5460    -1.9540    -0.0400 ha         1 4R8       0.015000
     36 H16          5.2230    -3.2950     1.9010 ha         1 4R8       0.074000
     37 H151         4.0260    -4.0590     0.6330 hc         1 4R8       0.062200
     38 H152         5.0810    -4.6920     1.9040 hc         1 4R8       0.062200
     39 H14          6.1770    -4.5960     0.8270 ha         1 4R8       0.142000
     40 H13          6.7570    -6.0160     1.1410 ha         1 4R8       0.064000
     41 H121         5.0860    -6.2020     2.0570 hc         1 4R8       0.049700
     42 H122         6.6840    -6.9500     2.1860 hc         1 4R8       0.049700
     43 H11          4.8900    -7.5870     2.1700 ha         1 4R8       0.007000
     44 H10          6.7100    -9.1700     1.7110 ha         1 4R8       0.114000
     45 H9C1         6.8370    -8.0260     3.2410 hc         1 4R8       0.048200
     46 H9C2         7.6380    -9.5070     2.6990 hc         1 4R8       0.048200
     47 H8           6.1030   -10.8490     4.0990 hc         1 4R8       0.053700
     48 H7           8.3060    -9.9200     5.1940 ha         1 4R8       0.121000
     49 H6           5.9220    -8.8260     6.7310 ha         1 4R8       0.133000
     50 H5C1         8.9630    -9.2140     7.2240 hc         1 4R8       0.066700
     51 H5C2         7.7520    -9.5970     8.4570 hc         1 4R8       0.066700
     52 H3C1         8.7720    -7.6470    10.0630 hc         1 4R8       0.070700
     53 H3C2         9.9820    -7.2650     8.8300 hc         1 4R8       0.070700
     54 H2C1         7.7620    -5.4090     9.7650 hc         1 4R8       0.041700
     55 H2C2         8.9730    -5.0270     8.5330 hc         1 4R8       0.041700
     56 HOT          5.3020    -9.3670     4.6400 hc         1 4R8       0.053700
@<TRIPOS>BOND
     1     1     2 1   
     2     2     3 1   
     3     3     4 2   
     4     4     5 1   
     5     5     6 1   
     6     6     7 2   
     7     7     8 1   
     8     8     9 1   
     9     9    10 2   
    10    10    11 1   
    11    11    12 1   
    12    12    13 2   
    13    13    14 1   
    14    14    15 1   
    15    15    16 1   
    16    16    17 2   
    17    17    18 1   
    18    18    19 1   
    19    19    20 2   
    20    19    21 1   
    21    21    22 1   
    22    22    23 1   
    23    23    24 1   
    24    23    25 1   
    25     1    26 1   
    26     1    27 1   
    27     1    28 1   
    28     2    29 1   
    29     2    30 1   
    30     3    31 1   
    31     4    32 1   
    32     5    33 1   
    33     5    34 1   
    34     6    35 1   
    35     7    36 1   
    36     8    37 1   
    37     8    38 1   
    38     9    39 1   
    39    10    40 1   
    40    11    41 1   
    41    11    42 1   
    42    12    43 1   
    43    13    44 1   
    44    14    45 1   
    45    14    46 1   
    46    15    47 1   
    47    15    56 1   
    48    16    48 1   
    49    17    49 1   
    50    18    50 1   
    51    18    51 1   
    52    21    52 1   
    53    21    53 1   
    54    22    54 1   
    55    22    55 1   
@<TRIPOS>SUBSTRUCTURE
     1 4R8         1 TEMP              0 ****  ****    0 ROOT
