@<TRIPOS>MOLECULE
4R8
   56    55     1     0     0
SMALL
bcc


@<TRIPOS>ATOM
      1 C22         2.1450   -2.2580    5.2370 c3        1 4R8     -0.088100
      2 C21         2.7340   -2.5720    3.8840 c3        1 4R8     -0.066200
      3 C20         3.0870   -1.3490    3.1260 c2        1 4R8     -0.172200
      4 C19         4.0000   -1.3010    2.1500 c2        1 4R8     -0.169200
      5 C18         4.7930   -2.4710    1.7050 c3        1 4R8     -0.035000
      6 C17         5.8560   -2.1380    0.7280 c2        1 4R8     -0.167200
      7 C16         6.7690   -3.0200    0.3060 c2        1 4R8     -0.175200
      8 C15         6.8210   -4.4280    0.7700 c3        1 4R8     -0.030000
      9 C14         7.9160   -5.2120    0.1510 c2        1 4R8     -0.161200
     10 C13         8.2300   -6.4710    0.4710 c2        1 4R8     -0.176200
     11 C12         7.5660   -7.2810    1.5210 c3        1 4R8     -0.028000
     12 C11         7.2600   -8.6600    1.0660 c2        1 4R8     -0.166200
     13 C10         6.8730   -9.6560    1.8690 c2        1 4R8     -0.175200
     14 C9          6.7130   -9.5570    3.3400 c3        1 4R8     -0.047200
     15 C8          5.3670   -8.9570    3.7170 c3        1 4R8     -0.036200
     16 C7          5.2430   -8.7660    5.1820 c2        1 4R8     -0.218200
     17 C6          5.6750   -7.7050    5.8700 c2        1 4R8     -0.131200
     18 C5          6.4200   -6.5560    5.2980 c3        1 4R8     -0.176200
     19 C4          5.5510   -5.3370    5.1430 c         1 4R8      0.601100
     20 O3          5.4220   -4.7900    4.0350 o         1 4R8     -0.615100
     21 C3          4.8670   -4.8120    6.3700 c3        1 4R8     -0.168400
     22 C2          5.8480   -4.3350    7.4190 c3        1 4R8     -0.194400
     23 C1          6.4340   -5.5100    8.2230 c         1 4R8      0.900600
     24 O1          5.6310   -6.3080    8.7900 o         1 4R8     -0.845300
     25 O2          7.6920   -5.6310    8.2580 o         1 4R8     -0.845300
     26 H221        1.8850   -3.2050    5.7700 hc        1 4R8      0.031033
     27 H222        2.8800   -1.6960    5.8630 hc        1 4R8      0.031033
     28 H223        1.2200   -1.6400    5.1380 hc        1 4R8      0.031033
     29 H211        3.6450   -3.2250    4.0170 hc        1 4R8      0.063700
     30 H212        1.9940   -3.1680    3.2810 hc        1 4R8      0.063700
     31 H20         2.5370   -0.4370    3.4130 ha        1 4R8      0.107000
     32 H19         4.2010   -0.3500    1.6300 ha        1 4R8      0.107000
     33 H181        4.1000   -3.2360    1.2490 hc        1 4R8      0.079200
     34 H182        5.2580   -2.9790    2.6040 hc        1 4R8      0.079200
     35 H17         5.8710   -1.1020    0.3520 ha        1 4R8      0.109000
     36 H16         7.5400   -2.7130   -0.4190 ha        1 4R8      0.109000
     37 H151        5.8340   -4.9250    0.5430 hc        1 4R8      0.075700
     38 H152        6.9180   -4.4450    1.8960 hc        1 4R8      0.075700
     39 H14         8.4950   -4.6930   -0.6310 ha        1 4R8      0.108000
     40 H13         9.0560   -6.9810   -0.0510 ha        1 4R8      0.109000
     41 H121        6.6120   -6.7860    1.8630 hc        1 4R8      0.070200
     42 H122        8.2430   -7.3180    2.4230 hc        1 4R8      0.070200
     43 H11         7.3560   -8.8340   -0.0190 ha        1 4R8      0.110000
     44 H10         6.6440  -10.6460    1.4400 ha        1 4R8      0.106000
     45 H9C1        6.8060  -10.5760    3.8010 hc        1 4R8      0.047700
     46 H9C2        7.5310   -8.9210    3.7760 hc        1 4R8      0.047700
     47 H8          5.2430   -7.9730    3.1870 hc        1 4R8      0.038700
     48 H7          4.7390   -9.5890    5.7150 ha        1 4R8      0.111000
     49 H6          5.5200   -7.6290    6.9700 ha        1 4R8      0.191000
     50 H5C1        7.2520   -6.2840    6.0190 hc        1 4R8      0.090200
     51 H5C2        6.8790   -6.8150    4.3070 hc        1 4R8      0.090200
     52 H3C1        4.2480   -5.6400    6.8160 hc        1 4R8      0.061200
     53 H3C2        4.1780   -3.9750    6.0750 hc        1 4R8      0.061200
     54 H2C1        6.6780   -3.7510    6.9490 hc        1 4R8      0.034200
     55 H2C2        5.3110   -3.6640    8.1360 hc        1 4R8      0.034200
     56 HOT         4.5480   -9.6320    3.3530 hc        1 4R8      0.038700
@<TRIPOS>BOND
     1    1    2 1   
     2    1   26 1   
     3    1   27 1   
     4    1   28 1   
     5    2    3 1   
     6    2   29 1   
     7    2   30 1   
     8    3    4 2   
     9    3   31 1   
    10    4    5 1   
    11    4   32 1   
    12    5    6 1   
    13    5   33 1   
    14    5   34 1   
    15    6    7 2   
    16    6   35 1   
    17    7    8 1   
    18    7   36 1   
    19    8    9 1   
    20    8   37 1   
    21    8   38 1   
    22    9   10 2   
    23    9   39 1   
    24   10   11 1   
    25   10   40 1   
    26   11   12 1   
    27   11   41 1   
    28   11   42 1   
    29   12   13 2   
    30   12   43 1   
    31   13   14 1   
    32   13   44 1   
    33   14   15 1   
    34   14   45 1   
    35   14   46 1   
    36   15   16 1   
    37   15   47 1   
    38   15   56 1   
    39   16   17 2   
    40   16   48 1   
    41   17   18 1   
    42   17   49 1   
    43   18   19 1   
    44   18   50 1   
    45   18   51 1   
    46   19   20 2   
    47   19   21 1   
    48   21   22 1   
    49   21   52 1   
    50   21   53 1   
    51   22   23 1   
    52   22   54 1   
    53   22   55 1   
    54   23   24 1   
    55   23   25 1   
@<TRIPOS>SUBSTRUCTURE
     1 4R8         1 TEMP              0 ****  ****    0 ROOT
