@<TRIPOS>MOLECULE
4RB
   41    43     1     0     0
SMALL
bcc


@<TRIPOS>ATOM
      1 C1G          0.0000     0.0000     0.0000 ca         1 4RB      -0.129000
      2 C1E          1.3650     0.0000     0.0000 ca         1 4RB      -0.080000
      3 C1R          2.0650     0.0000     1.2110 ca         1 4RB      -0.087600
      4 C1Q          3.5380     0.0010     1.2110 c          1 4RB       0.970200
      5 O1D          4.2120     0.0010     2.3780 o          1 4RB      -0.884300
      6 O1B          4.1450     0.0020     0.1590 o          1 4RB      -0.884300
      7 C1F          1.3650    -0.0000     2.4240 ca         1 4RB      -0.080000
      8 C1H          0.0000    -0.0000     2.4240 ca         1 4RB      -0.129000
      9 C1S         -0.7000     0.0000     1.2110 ca         1 4RB      -0.058800
     10 C1U         -2.1730    -0.0010     1.2120 cc         1 4RB      -0.224300
     11 C1K         -2.9990     0.1910     0.1200 cd         1 4RB       0.000600
     12 N1N         -4.2580     0.1180     0.5350 nd         1 4RB      -0.221600
     13 C1V         -4.2820    -0.1110     1.8440 cc         1 4RB      -0.361300
     14 C1J         -5.3410    -0.2720     2.7570 cc         1 4RB       0.073000
     15 C1I         -5.0610    -0.5020     4.0680 cd         1 4RB      -0.339300
     16 N1X         -2.9930    -0.1960     2.2950 na         1 4RB       0.743200
     17 N1O         -2.7360    -0.4420     3.6470 nc         1 4RB      -0.728800
     18 C1T         -3.7240    -0.5770     4.5010 cd         1 4RB       0.566200
     19 N1P         -3.4460    -0.8130     5.8440 nu         1 4RB      -0.485900
     20 C1W         -2.0600    -0.8030     6.3180 c3         1 4RB       0.117500
     21 C1L         -1.5690    -2.2410     6.4890 c3         1 4RB      -0.038400
     22 C1A         -1.5190    -2.9290     5.1230 c3         1 4RB      -0.010100
     23 C1M         -1.9860    -0.0760     7.6630 c3         1 4RB       0.208400
     24 O1C         -2.7170    -0.8150     8.6440 oh         1 4RB      -0.601800
     25 H1G         -0.5420     0.0000    -0.9380 ha         1 4RB       0.101500
     26 H1E          1.9060    -0.0000    -0.9380 ha         1 4RB       0.125500
     27 H1F          1.9070    -0.0000     3.3620 ha         1 4RB       0.125500
     28 H1H         -0.5410    -0.0000     3.3620 ha         1 4RB       0.101500
     29 H1K         -2.6750     0.3740    -0.8970 h4         1 4RB       0.147000
     30 H1J         -6.3690    -0.2130     2.4200 ha         1 4RB       0.110000
     31 H1I         -5.8670    -0.6150     4.7820 ha         1 4RB       0.117000
     32 HN1P        -4.1950    -0.9730     6.4880 hn         1 4RB       0.299800
     33 H1W         -1.4350    -0.2910     5.5970 h1         1 4RB       0.081700
     34 H1L         -2.2480    -2.7800     7.1390 hc         1 4RB       0.020700
     35 H1LA        -0.5780    -2.2350     6.9270 hc         1 4RB       0.020700
     36 H1A         -0.9890    -2.2970     4.4200 hc         1 4RB       0.011367
     37 H1AA        -1.0040    -3.8770     5.2150 hc         1 4RB       0.011367
     38 H1AB        -2.5280    -3.0980     4.7660 hc         1 4RB       0.011367
     39 H1M         -2.4150     0.9130     7.5630 h1         1 4RB      -0.004300
     40 H1MA        -0.9510     0.0080     7.9710 h1         1 4RB      -0.004300
     41 HO1C        -2.6900    -0.3560     9.4670 ho         1 4RB       0.389000
@<TRIPOS>BOND
     1     1     2 ar  
     2     1     9 ar  
     3     1    25 1   
     4     2     3 ar  
     5     2    26 1   
     6     3     4 1   
     7     3     7 ar  
     8     4     5 1   
     9     4     6 1   
    10     7     8 ar  
    11     7    27 1   
    12     8     9 ar  
    13     8    28 1   
    14     9    10 1   
    15    10    11 2   
    16    10    16 1   
    17    11    12 1   
    18    11    29 1   
    19    12    13 2   
    20    13    14 1   
    21    13    16 1   
    22    14    15 2   
    23    14    30 1   
    24    15    18 1   
    25    15    31 1   
    26    16    17 1   
    27    17    18 2   
    28    18    19 1   
    29    19    20 1   
    30    19    32 1   
    31    20    21 1   
    32    20    23 1   
    33    20    33 1   
    34    21    22 1   
    35    21    34 1   
    36    21    35 1   
    37    22    36 1   
    38    22    37 1   
    39    22    38 1   
    40    23    24 1   
    41    23    39 1   
    42    23    40 1   
    43    24    41 1   
@<TRIPOS>SUBSTRUCTURE
     1 4RB         1 TEMP              0 ****  ****    0 ROOT
