@<TRIPOS>MOLECULE
4RC
   46    49     1     0     0
SMALL
bcc


@<TRIPOS>ATOM
      1 C1           0.0000     0.0000     0.0000 ca         1 4RC      -0.245300
      2 N2           3.0330     0.0050    10.1930 n7         1 4RC      -0.577200
      3 C3           0.0660     0.0020     2.3840 ca         1 4RC      -0.013900
      4 N4           1.9250    -0.0030     3.6100 na         1 4RC       0.120000
      5 C5           2.1550     0.0020     6.5010 c3         1 4RC       0.160800
      6 C6           1.9170     0.0050     8.0120 c3         1 4RC      -0.037400
      7 C7           3.2620     0.0020     8.7410 c3         1 4RC       0.142800
      8 C9           5.0020    -1.3410    11.0630 c3         1 4RC      -0.056400
      9 C14          3.0520     2.3790    13.5300 ca         1 4RC      -0.064600
     10 C13          3.6480     1.8950    14.6830 ca         1 4RC      -0.064000
     11 C12          4.4840     0.8010    14.6170 ca         1 4RC      -0.082600
     12 Cl           5.2280     0.1960    16.0640 cl         1 4RC      -0.012400
     13 C15          3.3010     1.7670    12.3180 ca         1 4RC      -0.045000
     14 C16          4.1430     0.6680    12.2440 ca         1 4RC      -0.122300
     15 C11          4.7360     0.1760    13.3930 ca         1 4RC       0.034600
     16 N3           5.5790    -0.9370    13.3950 nu         1 4RC      -0.391600
     17 C10          6.1470    -1.2310    12.0780 c3         1 4RC       0.141800
     18 C8           4.3880     0.0500    10.8900 c3         1 4RC       0.174800
     19 C4           0.8290     0.0020     4.4260 cc         1 4RC       0.347700
     20 N           -0.2640     0.0050     3.7030 nd         1 4RC      -0.595100
     21 C17          1.4690    -0.0030     2.3040 ca         1 4RC       0.197800
     22 N5           2.0730     0.0000     1.1270 nb         1 4RC      -0.564000
     23 C            1.3880     0.0000     0.0000 ca         1 4RC       0.545500
     24 F            2.0500     0.0020    -1.1780 f          1 4RC      -0.227200
     25 C2          -0.6810     0.0040     1.2030 ca         1 4RC      -0.009000
     26 H1          -0.5460     0.0000    -0.9360 ha         1 4RC       0.127000
     27 H2           2.5740    -0.8430    10.4600 hn         1 4RC       0.264800
     28 H4           2.8750    -0.1260     3.9010 hn         1 4RC       0.134700
     29 H5           2.7130    -0.8850     6.2250 h1         1 4RC       0.009700
     30 H6           2.7180     0.8840     6.2220 h1         1 4RC       0.009700
     31 H7           1.3530    -0.8770     8.2910 hc         1 4RC       0.030200
     32 H8           1.3590     0.8920     8.2880 hc         1 4RC       0.030200
     33 H9           3.8750     0.8530     8.4700 h1         1 4RC       0.009700
     34 H10          3.7690    -0.9130     8.4570 h1         1 4RC       0.009700
     35 H11          4.2480    -2.0150    11.4510 hc         1 4RC       0.031700
     36 H12          5.4030    -1.6720    10.1120 hc         1 4RC       0.031700
     37 H13          3.4990     2.4070    15.6260 ha         1 4RC       0.124000
     38 H14          2.8380     2.1500    11.4170 ha         1 4RC       0.131000
     39 H15          6.3190    -0.7940    14.0540 hn         1 4RC       0.269800
     40 H16          6.7980    -0.4160    11.7870 h1         1 4RC       0.018200
     41 H17          6.6690    -2.1790    12.1240 h1         1 4RC       0.018200
     42 H18          5.0710     0.6760    10.3290 h1         1 4RC       0.041700
     43 H21         -1.7640     0.0040     1.2300 ha         1 4RC       0.119000
     44 N1           0.8660     0.0050     5.8040 nu         1 4RC      -0.466200
     45 Cl1          1.9960     3.7560    13.6100 cl         1 4RC      -0.022400
     46 H19          0.0140    -0.0010     6.3280 hn         1 4RC       0.318800
@<TRIPOS>BOND
     1     1    23 ar  
     2     1    25 ar  
     3     1    26 1   
     4     2     7 1   
     5     2    18 1   
     6     2    27 1   
     7     3    20 1   
     8     3    21 ar  
     9     3    25 ar  
    10     4    19 1   
    11     4    21 1   
    12     4    28 1   
    13     5     6 1   
    14     5    29 1   
    15     5    30 1   
    16     5    44 1   
    17     6     7 1   
    18     6    31 1   
    19     6    32 1   
    20     7    33 1   
    21     7    34 1   
    22     8    17 1   
    23     8    18 1   
    24     8    35 1   
    25     8    36 1   
    26     9    10 ar  
    27     9    13 ar  
    28     9    45 1   
    29    10    11 ar  
    30    10    37 1   
    31    11    12 1   
    32    11    15 ar  
    33    13    14 ar  
    34    13    38 1   
    35    14    15 ar  
    36    14    18 1   
    37    15    16 1   
    38    16    17 1   
    39    16    39 1   
    40    17    40 1   
    41    17    41 1   
    42    18    42 1   
    43    19    20 2   
    44    19    44 1   
    45    21    22 ar  
    46    22    23 ar  
    47    23    24 1   
    48    25    43 1   
    49    44    46 1   
@<TRIPOS>SUBSTRUCTURE
     1 4RC         1 TEMP              0 ****  ****    0 ROOT
