@<TRIPOS>MOLECULE
molecule
   45    48     1     0     0
SMALL
bcc


@<TRIPOS>ATOM
      1 C1           0.0000     0.0000     0.0000 ca         1 4RD      -0.291300
      2 C2           1.3860     0.0000     0.0000 ca         1 4RD      -0.059000
      3 C3           2.0420     0.0000     1.2230 ca         1 4RD      -0.246500
      4 C4           3.4040     0.0020     2.9660 cc         1 4RD       0.695700
      5 C5           5.8630     0.0010     3.0880 c3         1 4RD       0.231800
      6 C6           6.9560     0.0020     4.1590 c3         1 4RD      -0.096400
      7 C7           8.3300     0.0000     3.4840 c3         1 4RD       0.157800
      8 C8          10.7110     0.1230     3.9030 c3         1 4RD       0.221800
      9 C9          11.2190    -1.2650     3.5080 c3         1 4RD      -0.162400
     10 C10         12.7070    -1.1500     3.1510 c3         1 4RD       0.148400
     11 C11         12.9520     0.2780     5.0490 ca         1 4RD       0.156100
     12 C15         11.2180     1.8140     5.6600 ca         1 4RD      -0.058000
     13 C16         11.6600     0.7470     4.8960 ca         1 4RD      -0.150300
     14 C14         12.0630     2.4150     6.5740 ca         1 4RD      -0.006600
     15 C13         13.3580     1.9500     6.7280 ca         1 4RD      -0.082000
     16 C12         13.8020     0.8870     5.9690 ca         1 4RD       0.000400
     17 Cl          15.4270     0.3060     6.1620 cl         1 4RD      -0.082400
     18 O           13.4230    -0.7720     4.3290 os         1 4RD      -0.314900
     19 N2           9.3790     0.0010     4.5110 n7         1 4RD      -0.810200
     20 N1           4.5480     0.0020     3.7340 nu         1 4RD      -0.872200
     21 N            3.3750    -0.0000     1.6020 na         1 4RD      -0.293300
     22 N3           2.1800     0.0020     3.4370 nd         1 4RD      -0.735700
     23 C17          1.2930     0.0010     2.4110 ca         1 4RD       0.656300
     24 N4          -0.0380     0.0010     2.3580 nb         1 4RD      -0.698000
     25 C           -0.6810     0.0080     1.2080 ca         1 4RD       0.653500
     26 F           -2.0320     0.0070     1.2060 f          1 4RD      -0.219200
     27 H1          -0.5460     0.0050    -0.9350 ha         1 4RD       0.154000
     28 H2           1.9420    -0.0060    -0.9300 ha         1 4RD       0.137000
     29 H3           5.9610    -0.8850     2.4720 h1         1 4RD       0.038200
     30 H4           5.9620     0.8850     2.4700 h1         1 4RD       0.038200
     31 H5           6.8570    -0.8820     4.7770 hc         1 4RD       0.063700
     32 H6           6.8580     0.8870     4.7750 hc         1 4RD       0.063700
     33 H7           8.4290     0.8840     2.8650 h1         1 4RD       0.034700
     34 H8           8.4290    -0.8850     2.8670 h1         1 4RD       0.034700
     35 H9          10.6540     0.7490     3.0210 h1         1 4RD       0.071700
     36 H10         10.6660    -1.6240     2.6480 hc         1 4RD       0.061200
     37 H11         11.0960    -1.9480     4.3390 hc         1 4RD       0.061200
     38 H12         12.8320    -0.3790     2.4000 h1         1 4RD       0.064700
     39 H13         13.0650    -2.1160     2.8160 h1         1 4RD       0.064700
     40 H14         10.2060     2.1830     5.5380 ha         1 4RD       0.164000
     41 H15         14.0210     2.4210     7.4430 ha         1 4RD       0.161000
     42 H16          9.3300    -0.8480     5.0390 hn         1 4RD       0.365800
     43 H18          4.4800     0.0460     4.7320 hn         1 4RD       0.478800
     44 H19          4.1590    -0.1450     0.9970 hn         1 4RD       0.299700
     45 Cl1         11.5000     3.7510     7.5290 cl         1 4RD      -0.099400
@<TRIPOS>BOND
     1     9    10 1
     2     9     8 1
     3    17    16 1
     4    45    14 1
     5    15    16 ar
     6    15    14 ar
     7    16    11 ar
     8    18    11 1
     9    18    10 1
    10    14    12 ar
    11    11    13 ar
    12    12    13 ar
    13    13     8 1
    14     8    19 1
    15    19     7 1
    16     7     6 1
    17     6     5 1
    18     5    20 1
    19    20     4 1
    20     4    22 2
    21     4    21 1
    22    22    23 1
    23    21     3 1
    24    23     3 ar
    25    23    24 ar
    26     3     2 ar
    27    24    25 ar
    28     2     1 ar
    29    25     1 ar
    30    25    26 1
    31     1    27 1
    32     2    28 1
    33     5    29 1
    34     5    30 1
    35     6    31 1
    36     6    32 1
    37     7    33 1
    38     7    34 1
    39     8    35 1
    40     9    36 1
    41     9    37 1
    42    10    38 1
    43    10    39 1
    44    12    40 1
    45    15    41 1
    46    19    42 1
    47    20    43 1
    48    21    44 1
@<TRIPOS>SUBSTRUCTURE
     1 4RD         1 TEMP              0 ****  ****    0 ROOT
