@<TRIPOS>MOLECULE
4RD
   45    48     1     0     0
SMALL
bcc


@<TRIPOS>ATOM
      1 C1           0.0000     0.0000     0.0000 ca         1 4RD      -0.254300
      2 C2           1.3860     0.0000     0.0000 ca         1 4RD      -0.021000
      3 C3           2.0420     0.0000     1.2230 ca         1 4RD      -0.415500
      4 C4           3.4040     0.0020     2.9660 cc         1 4RD       0.353700
      5 C5           5.8630     0.0010     3.0880 c3         1 4RD       0.160800
      6 C6           6.9560     0.0020     4.1590 c3         1 4RD      -0.035400
      7 C7           8.3300     0.0000     3.4840 c3         1 4RD       0.143800
      8 C8          10.7110     0.1230     3.9030 c3         1 4RD       0.190800
      9 C9          11.2190    -1.2650     3.5080 c3         1 4RD      -0.110400
     10 C10         12.7070    -1.1500     3.1510 c3         1 4RD       0.225400
     11 C11         12.9520     0.2780     5.0490 ca         1 4RD       0.166100
     12 C15         11.2180     1.8140     5.6600 ca         1 4RD      -0.040000
     13 C16         11.6600     0.7470     4.8960 ca         1 4RD      -0.163300
     14 C14         12.0630     2.4150     6.5740 ca         1 4RD      -0.068600
     15 C13         13.3580     1.9500     6.7280 ca         1 4RD      -0.062000
     16 C12         13.8020     0.8870     5.9690 ca         1 4RD      -0.072600
     17 Cl          15.4270     0.3060     6.1620 cl         1 4RD       0.000600
     18 O           13.4230    -0.7720     4.3290 os         1 4RD      -0.298900
     19 N2           9.3790     0.0010     4.5110 n7         1 4RD      -0.577200
     20 N1           4.5480     0.0020     3.7340 nu         1 4RD      -0.464200
     21 N            3.3750    -0.0000     1.6020 na         1 4RD       0.223700
     22 N3           2.1800     0.0020     3.4370 nd         1 4RD      -0.666700
     23 C17          1.2930     0.0010     2.4110 ca         1 4RD       0.565300
     24 N4          -0.0380     0.0010     2.3580 nb         1 4RD      -0.541000
     25 C           -0.6810     0.0080     1.2080 ca         1 4RD       0.557500
     26 F           -2.0320     0.0070     1.2060 f          1 4RD      -0.227200
     27 H1          -0.5460     0.0050    -0.9350 ha         1 4RD       0.128000
     28 H2           1.9420    -0.0060    -0.9300 ha         1 4RD       0.105000
     29 H3           5.9610    -0.8850     2.4720 h1         1 4RD       0.008200
     30 H4           5.9620     0.8850     2.4700 h1         1 4RD       0.008200
     31 H5           6.8570    -0.8820     4.7770 hc         1 4RD       0.031200
     32 H6           6.8580     0.8870     4.7750 hc         1 4RD       0.031200
     33 H7           8.4290     0.8840     2.8650 h1         1 4RD       0.009200
     34 H8           8.4290    -0.8850     2.8670 h1         1 4RD       0.009200
     35 H9          10.6540     0.7490     3.0210 h1         1 4RD       0.042700
     36 H10         10.6660    -1.6240     2.6480 hc         1 4RD       0.033700
     37 H11         11.0960    -1.9480     4.3390 hc         1 4RD       0.033700
     38 H12         12.8320    -0.3790     2.4000 h1         1 4RD       0.020200
     39 H13         13.0650    -2.1160     2.8160 h1         1 4RD       0.020200
     40 H14         10.2060     2.1830     5.5380 ha         1 4RD       0.130000
     41 H15         14.0210     2.4210     7.4430 ha         1 4RD       0.126000
     42 H16          9.3300    -0.8480     5.0390 hn         1 4RD       0.265800
     43 H18          4.4800     0.0460     4.7320 hn         1 4RD       0.320800
     44 H19          4.1590    -0.1450     0.9970 hn         1 4RD       0.130700
     45 Cl1         11.5000     3.7510     7.5290 cl         1 4RD      -0.019400
@<TRIPOS>BOND
     1     1     2 ar  
     2     1    25 ar  
     3     1    27 1   
     4     2     3 ar  
     5     2    28 1   
     6     3    21 1   
     7     3    23 ar  
     8     4    20 1   
     9     4    21 1   
    10     4    22 2   
    11     5     6 1   
    12     5    20 1   
    13     5    29 1   
    14     5    30 1   
    15     6     7 1   
    16     6    31 1   
    17     6    32 1   
    18     7    19 1   
    19     7    33 1   
    20     7    34 1   
    21     8     9 1   
    22     8    13 1   
    23     8    19 1   
    24     8    35 1   
    25     9    10 1   
    26     9    36 1   
    27     9    37 1   
    28    10    18 1   
    29    10    38 1   
    30    10    39 1   
    31    11    13 ar  
    32    11    16 ar  
    33    11    18 1   
    34    12    13 ar  
    35    12    14 ar  
    36    12    40 1   
    37    14    15 ar  
    38    14    45 1   
    39    15    16 ar  
    40    15    41 1   
    41    16    17 1   
    42    19    42 1   
    43    20    43 1   
    44    21    44 1   
    45    22    23 1   
    46    23    24 ar  
    47    24    25 ar  
    48    25    26 1   
@<TRIPOS>SUBSTRUCTURE
     1 4RD         1 TEMP              0 ****  ****    0 ROOT
