@<TRIPOS>MOLECULE
molecule
  155   154     1     0     0
SMALL
bcc


@<TRIPOS>ATOM
      1 C10          0.0000     0.0000     0.0000 c3         1 4RF      -0.081400
      2 C13         -2.5510    -0.0000     2.8840 c3         1 4RF      -0.083400
      3 C15         -4.5910    -0.0000     4.3260 c3         1 4RF      -0.124400
      4 C20         -8.8050    -0.0010     6.8250 c3         1 4RF       0.144100
      5 C22         -7.3080     1.2550     8.1880 c          1 4RF       0.632100
      6 C24         -6.8790     2.5070     8.9090 c3         1 4RF      -0.124400
      7 C26         -5.1120     3.5290    10.3490 c3         1 4RF      -0.084400
      8 C28         -3.3440     4.5510    11.7890 c3         1 4RF      -0.082400
      9 C01          9.6930     0.0000    -5.7670 c3         1 4RF      -0.092100
     10 C02          8.1620     0.0010    -5.7680 c3         1 4RF      -0.084400
     11 C03          7.6510     0.0000    -4.3250 c3         1 4RF      -0.081400
     12 C04          6.1210     0.0000    -4.3260 c3         1 4RF      -0.082400
     13 C05          5.6110    -0.0000    -2.8830 c3         1 4RF      -0.081900
     14 C06          4.0810     0.0000    -2.8840 c3         1 4RF      -0.082400
     15 C07          3.5700     0.0000    -1.4410 c3         1 4RF      -0.082400
     16 C08          2.0400     0.0000    -1.4420 c3         1 4RF      -0.081900
     17 C09          1.5300     0.0000     0.0000 c3         1 4RF      -0.082400
     18 C11         -0.5100     0.0000     1.4420 c3         1 4RF      -0.082400
     19 C12         -2.0410    -0.0000     1.4410 c3         1 4RF      -0.080400
     20 C14         -4.0810    -0.0000     2.8840 c3         1 4RF      -0.072900
     21 C16         -6.0980    -0.0000     4.3250 c          1 4RF       0.631600
     22 O17         -6.7020    -0.0000     3.2780 o          1 4RF      -0.550500
     23 O18         -6.7700    -0.0000     5.4870 os         1 4RF      -0.419900
     24 C19         -8.2200    -0.0010     5.4110 c3         1 4RF       0.141900
     25 O21         -8.4560     1.2400     7.4940 os         1 4RF      -0.420900
     26 O23         -6.6170     0.2640     8.2360 o          1 4RF      -0.537000
     27 C25         -5.5460     2.2580     9.6170 c3         1 4RF      -0.072400
     28 C27         -3.7790     3.2790    11.0570 c3         1 4RF      -0.080400
     29 C29         -2.0110     4.3010    12.4970 c3         1 4RF      -0.081400
     30 C30         -1.5760     5.5730    13.2280 c3         1 4RF      -0.082400
     31 C31         -0.2430     5.3230    13.9370 c3         1 4RF      -0.082400
     32 C32          0.1920     6.5950    14.6690 c3         1 4RF      -0.081400
     33 C33          1.5250     6.3450    15.3760 c3         1 4RF      -0.081400
     34 C34          1.9600     7.6160    16.1080 c3         1 4RF      -0.082400
     35 C35          3.2920     7.3670    16.8170 c3         1 4RF      -0.082400
     36 C36          3.7270     8.6380    17.5480 c3         1 4RF      -0.081400
     37 C37          5.0600     8.3890    18.2570 c3         1 4RF      -0.084400
     38 C38          5.4950     9.6600    18.9880 c3         1 4RF      -0.092100
     39 C39        -10.3280    -0.1270     6.7460 c3         1 4RF       0.141900
     40 O40        -10.8730    -0.2460     8.0860 os         1 4RF      -0.419900
     41 C41        -12.2070    -0.3650     8.1930 c          1 4RF       0.631600
     42 O42        -12.8940    -0.3700     7.2000 o          1 4RF      -0.550500
     43 C43        -12.8440    -0.4930     9.5530 c3         1 4RF      -0.124400
     44 C44        -14.3610    -0.6150     9.3940 c3         1 4RF      -0.072900
     45 C45        -15.0090    -0.7440    10.7740 c3         1 4RF      -0.083400
     46 C46        -16.5270    -0.8650    10.6160 c3         1 4RF      -0.080400
     47 C47        -17.1750    -0.9950    11.9950 c3         1 4RF      -0.082400
     48 C48        -18.6910    -1.1160    11.8370 c3         1 4RF      -0.081400
     49 C49        -19.3400    -1.2460    13.2180 c3         1 4RF      -0.082400
     50 C50        -20.8570    -1.3670    13.0590 c3         1 4RF      -0.081900
     51 C51        -21.5040    -1.4980    14.4390 c3         1 4RF      -0.082400
     52 C52        -23.0210    -1.6180    14.2800 c3         1 4RF      -0.082400
     53 C53        -23.6700    -1.7490    15.6610 c3         1 4RF      -0.081900
     54 C54        -25.1870    -1.8690    15.5020 c3         1 4RF      -0.082400
     55 C55        -25.8340    -1.9990    16.8820 c3         1 4RF      -0.081400
     56 C56        -27.3510    -2.1190    16.7230 c3         1 4RF      -0.084400
     57 C57        -28.0000    -2.2500    18.1040 c3         1 4RF      -0.092100
     58 H1          -0.3610    -0.8840    -0.5110 hc         1 4RF       0.041700
     59 H2          -0.3610     0.8840    -0.5110 hc         1 4RF       0.041700
     60 H3          -2.1900     0.8840     3.3940 hc         1 4RF       0.040950
     61 H4          -2.1900    -0.8850     3.3940 hc         1 4RF       0.040950
     62 H5          -4.2300    -0.8850     4.8370 hc         1 4RF       0.073700
     63 H6          -4.2300     0.8840     4.8370 hc         1 4RF       0.073700
     64 H7          -8.4020    -0.8380     7.3820 h1         1 4RF       0.093700
     65 H8          -6.7630     3.3130     8.1940 hc         1 4RF       0.071200
     66 H9          -7.6310     2.7780     9.6400 hc         1 4RF       0.071200
     67 H10         -5.8640     3.8000    11.0790 hc         1 4RF       0.040700
     68 H11         -4.9950     4.3350     9.6340 hc         1 4RF       0.040700
     69 H12         -4.0960     4.8220    12.5200 hc         1 4RF       0.040700
     70 H13         -3.2280     5.3570    11.0740 hc         1 4RF       0.040700
     71 H14         10.0530    -0.8850    -5.2570 hc         1 4RF       0.032367
     72 H15         10.0540     0.8840    -5.2560 hc         1 4RF       0.032367
     73 H16         10.0540     0.0010    -6.7880 hc         1 4RF       0.032367
     74 H17          7.8020     0.8860    -6.2780 hc         1 4RF       0.039700
     75 H18          7.8010    -0.8830    -6.2790 hc         1 4RF       0.039700
     76 H19          8.0120    -0.8850    -3.8140 hc         1 4RF       0.040700
     77 H20          8.0120     0.8840    -3.8130 hc         1 4RF       0.040700
     78 H21          5.7600     0.8850    -4.8360 hc         1 4RF       0.040700
     79 H22          5.7600    -0.8840    -4.8370 hc         1 4RF       0.040700
     80 H23          5.9720     0.8830    -2.3720 hc         1 4RF       0.040700
     81 H24          5.9710    -0.8860    -2.3730 hc         1 4RF       0.040700
     82 H25          3.7200     0.8850    -3.3940 hc         1 4RF       0.040700
     83 H26          3.7190    -0.8840    -3.3950 hc         1 4RF       0.040700
     84 H27          3.9310     0.8850    -0.9310 hc         1 4RF       0.040700
     85 H28          3.9320    -0.8840    -0.9300 hc         1 4RF       0.040700
     86 H29          1.6800    -0.8850    -1.9530 hc         1 4RF       0.041700
     87 H30          1.6790     0.8840    -1.9530 hc         1 4RF       0.041700
     88 H31          1.8910    -0.8840     0.5110 hc         1 4RF       0.040700
     89 H32          1.8910     0.8840     0.5110 hc         1 4RF       0.040700
     90 H33         -0.1500     0.8850     1.9530 hc         1 4RF       0.040950
     91 H34         -0.1490    -0.8840     1.9530 hc         1 4RF       0.040950
     92 H35         -2.4020     0.8840     0.9300 hc         1 4RF       0.044450
     93 H36         -2.4010    -0.8850     0.9310 hc         1 4RF       0.044450
     94 H37         -4.4420     0.8840     2.3730 hc         1 4RF       0.058700
     95 H38         -4.4420    -0.8850     2.3730 hc         1 4RF       0.058700
     96 H39         -8.5540    -0.8850     4.8820 h1         1 4RF       0.063700
     97 H40         -8.5540     0.8840     4.8820 h1         1 4RF       0.063700
     98 H41         -5.6630     1.4520    10.3320 hc         1 4RF       0.058200
     99 H42         -4.7940     1.9870     8.8860 hc         1 4RF       0.058200
    100 H43         -3.8950     2.4730    11.7720 hc         1 4RF       0.043700
    101 H44         -3.0270     3.0070    10.3270 hc         1 4RF       0.043700
    102 H45         -2.1270     3.4950    13.2120 hc         1 4RF       0.041700
    103 H46         -1.2590     4.0300    11.7660 hc         1 4RF       0.041700
    104 H47         -1.4600     6.3780    12.5130 hc         1 4RF       0.040700
    105 H48         -2.3280     5.8440    13.9590 hc         1 4RF       0.040700
    106 H49          0.5090     5.0510    13.2060 hc         1 4RF       0.041700
    107 H50         -0.3600     4.5170    14.6510 hc         1 4RF       0.041700
    108 H51         -0.5600     6.8660    15.4000 hc         1 4RF       0.040700
    109 H52          0.3070     7.4010    13.9540 hc         1 4RF       0.040700
    110 H53          1.4090     5.5390    16.0900 hc         1 4RF       0.040700
    111 H54          2.2770     6.0740    14.6450 hc         1 4RF       0.040700
    112 H55          2.0760     8.4230    15.3940 hc         1 4RF       0.040700
    113 H56          1.2080     7.8870    16.8390 hc         1 4RF       0.040700
    114 H57          4.0450     7.0960    16.0860 hc         1 4RF       0.040700
    115 H58          3.1760     6.5610    17.5310 hc         1 4RF       0.040700
    116 H59          2.9750     8.9100    18.2790 hc         1 4RF       0.040700
    117 H60          3.8440     9.4440    16.8340 hc         1 4RF       0.040700
    118 H61          4.9440     7.5830    18.9710 hc         1 4RF       0.039700
    119 H62          5.8120     8.1180    17.5260 hc         1 4RF       0.039700
    120 H63          4.7430     9.9320    19.7190 hc         1 4RF       0.032367
    121 H64          5.6110    10.4660    18.2740 hc         1 4RF       0.032367
    122 H65          6.4380     9.4830    19.4900 hc         1 4RF       0.032367
    123 H66        -10.5880    -1.0070     6.1700 h1         1 4RF       0.063700
    124 H67        -10.7390     0.7530     6.2660 h1         1 4RF       0.063700
    125 H68        -12.4610    -1.3760    10.0500 hc         1 4RF       0.073700
    126 H69        -12.6120     0.3840    10.1450 hc         1 4RF       0.073700
    127 H70        -14.5930    -1.4920     8.8020 hc         1 4RF       0.058700
    128 H71        -14.7440     0.2680     8.8960 hc         1 4RF       0.058700
    129 H72        -14.7770     0.1330    11.3660 hc         1 4RF       0.040950
    130 H73        -14.6260    -1.6270    11.2720 hc         1 4RF       0.040950
    131 H74        -16.7590    -1.7430    10.0240 hc         1 4RF       0.044450
    132 H75        -16.9100     0.0180    10.1180 hc         1 4RF       0.044450
    133 H76        -16.9420    -0.1180    12.5870 hc         1 4RF       0.040950
    134 H77        -16.7920    -1.8780    12.4920 hc         1 4RF       0.040950
    135 H78        -19.0740    -0.2330    11.3400 hc         1 4RF       0.041700
    136 H79        -18.9240    -1.9930    11.2450 hc         1 4RF       0.041700
    137 H80        -19.1080    -0.3680    13.8100 hc         1 4RF       0.040700
    138 H81        -18.9570    -2.1290    13.7150 hc         1 4RF       0.040700
    139 H82        -21.2400    -0.4840    12.5620 hc         1 4RF       0.041700
    140 H83        -21.0890    -2.2440    12.4660 hc         1 4RF       0.041700
    141 H84        -21.1220    -2.3820    14.9350 hc         1 4RF       0.040700
    142 H85        -21.2710    -0.6210    15.0320 hc         1 4RF       0.040700
    143 H86        -23.4030    -0.7340    13.7840 hc         1 4RF       0.040700
    144 H87        -23.2540    -2.4940    13.6870 hc         1 4RF       0.040700
    145 H88        -23.4370    -0.8720    16.2530 hc         1 4RF       0.040700
    146 H89        -23.2870    -2.6320    16.1570 hc         1 4RF       0.040700
    147 H90        -25.4200    -2.7450    14.9090 hc         1 4RF       0.040700
    148 H91        -25.5690    -0.9850    15.0060 hc         1 4RF       0.040700
    149 H92        -25.4520    -2.8830    17.3780 hc         1 4RF       0.040700
    150 H93        -25.6010    -1.1230    17.4750 hc         1 4RF       0.040700
    151 H94        -27.5840    -2.9960    16.1310 hc         1 4RF       0.039700
    152 H95        -27.7330    -1.2360    16.2270 hc         1 4RF       0.039700
    153 H96        -27.7670    -1.3740    18.6970 hc         1 4RF       0.032367
    154 H97        -29.0740    -2.3350    17.9920 hc         1 4RF       0.032367
    155 H98        -27.6170    -3.1340    18.6000 hc         1 4RF       0.032367
@<TRIPOS>BOND
     1    57    56 1
     2    55    56 1
     3    55    54 1
     4    53    54 1
     5    53    52 1
     6    52    51 1
     7    51    50 1
     8    49    48 1
     9    49    50 1
    10    35    36 1
    11    35    34 1
    12    48    47 1
    13    33    34 1
    14    33    32 1
    15    37    36 1
    16    37    38 1
    17    46    47 1
    18    46    45 1
    19    32    31 1
    20    45    44 1
    21    31    30 1
    22    44    43 1
    23    43    41 1
    24    30    29 1
    25    29     8 1
    26    20     2 1
    27    20     3 1
    28     2    19 1
    29    41    40 1
    30    41    42 2
    31     3    21 1
    32    40    39 1
    33     8    28 1
    34    19    18 1
    35    28     7 1
    36    21    23 1
    37    21    22 2
    38    23    24 1
    39    39     4 1
    40    18     1 1
    41     7    27 1
    42    27     6 1
    43     4    24 1
    44     4    25 1
    45     9    10 1
    46     1    17 1
    47    26     5 2
    48     5     6 1
    49     5    25 1
    50    17    16 1
    51    11    10 1
    52    11    12 1
    53    14    15 1
    54    14    13 1
    55    12    13 1
    56    16    15 1
    57     1    58 1
    58     1    59 1
    59     2    60 1
    60     2    61 1
    61     3    62 1
    62     3    63 1
    63     4    64 1
    64     6    65 1
    65     6    66 1
    66     7    67 1
    67     7    68 1
    68     8    69 1
    69     8    70 1
    70     9    71 1
    71     9    72 1
    72     9    73 1
    73    10    74 1
    74    10    75 1
    75    11    76 1
    76    11    77 1
    77    12    78 1
    78    12    79 1
    79    13    80 1
    80    13    81 1
    81    14    82 1
    82    14    83 1
    83    15    84 1
    84    15    85 1
    85    16    86 1
    86    16    87 1
    87    17    88 1
    88    17    89 1
    89    18    90 1
    90    18    91 1
    91    19    92 1
    92    19    93 1
    93    20    94 1
    94    20    95 1
    95    24    96 1
    96    24    97 1
    97    27    98 1
    98    27    99 1
    99    28   100 1
   100    28   101 1
   101    29   102 1
   102    29   103 1
   103    30   104 1
   104    30   105 1
   105    31   106 1
   106    31   107 1
   107    32   108 1
   108    32   109 1
   109    33   110 1
   110    33   111 1
   111    34   112 1
   112    34   113 1
   113    35   114 1
   114    35   115 1
   115    36   116 1
   116    36   117 1
   117    37   118 1
   118    37   119 1
   119    38   120 1
   120    38   121 1
   121    38   122 1
   122    39   123 1
   123    39   124 1
   124    43   125 1
   125    43   126 1
   126    44   127 1
   127    44   128 1
   128    45   129 1
   129    45   130 1
   130    46   131 1
   131    46   132 1
   132    47   133 1
   133    47   134 1
   134    48   135 1
   135    48   136 1
   136    49   137 1
   137    49   138 1
   138    50   139 1
   139    50   140 1
   140    51   141 1
   141    51   142 1
   142    52   143 1
   143    52   144 1
   144    53   145 1
   145    53   146 1
   146    54   147 1
   147    54   148 1
   148    55   149 1
   149    55   150 1
   150    56   151 1
   151    56   152 1
   152    57   153 1
   153    57   154 1
   154    57   155 1
@<TRIPOS>SUBSTRUCTURE
     1 4RF         1 TEMP              0 ****  ****    0 ROOT
