@<TRIPOS>MOLECULE
molecule
   28    29     1     0     0
SMALL
bcc


@<TRIPOS>ATOM
      1 CAA          0.0000     0.0000     0.0000 c          1 4RG       0.882200
      2 CAB          1.4780     0.0000     0.0000 ca         1 4RG      -0.107600
      3 CAC          2.1790     0.0000     1.2080 ca         1 4RG      -0.078000
      4 CAD          3.5580    -0.0000     1.2010 ca         1 4RG      -0.136300
      5 CAE          4.2470     0.0020    -0.0000 ca         1 4RG      -0.129000
      6 CAF          3.5580     0.0030    -1.2000 ca         1 4RG      -0.169000
      7 CAG          2.1790    -0.0040    -1.2070 ca         1 4RG      -0.081000
      8 OAH         -0.6730     0.0000    -1.1670 o          1 4RG      -0.835800
      9 OAI         -0.6080    -0.0060     1.0520 o          1 4RG      -0.835800
     10 CAJ          4.3160    -0.0000     2.5030 c3         1 4RG       0.191700
     11 OAK          4.5570    -1.3480     2.9130 os         1 4RG      -0.314900
     12 CAL          5.2350    -1.5270     4.0770 ca         1 4RG       0.159100
     13 CAM          5.5040    -2.8090     4.5350 ca         1 4RG      -0.195500
     14 CAN          6.1930    -2.9870     5.7190 ca         1 4RG      -0.095500
     15 CAO          6.6160    -1.8900     6.4460 ca         1 4RG      -0.185000
     16 CAP          6.3490    -0.6120     5.9920 ca         1 4RG      -0.095500
     17 CAQ          5.6660    -0.4280     4.8060 ca         1 4RG      -0.195500
     18 HAC          1.6410    -0.0010     2.1480 ha         1 4RG       0.149000
     19 HAE          5.3300     0.0050    -0.0010 ha         1 4RG       0.104000
     20 HAF          4.1030     0.0020    -2.1360 ha         1 4RG       0.107000
     21 HAG          1.6400    -0.0030    -2.1470 ha         1 4RG       0.155000
     22 HAJ          3.7330     0.5100     3.2600 h1         1 4RG       0.031700
     23 HAJA         5.2620     0.5110     2.3700 h1         1 4RG       0.031700
     24 HAM          5.1720    -3.6690     3.9650 ha         1 4RG       0.141000
     25 HAN          6.4030    -3.9880     6.0770 ha         1 4RG       0.121500
     26 HAO          7.1540    -2.0330     7.3760 ha         1 4RG       0.118000
     27 HAP          6.6840     0.2450     6.5630 ha         1 4RG       0.121500
     28 HAQ          5.4580     0.5740     4.4510 ha         1 4RG       0.141000
@<TRIPOS>BOND
     1     9     1 1   
     2     2     1 1   
     3     1     8 1   
     4     7     2 ar  
     5     2     3 ar  
     6     4     3 ar  
     7     3    18 1   
     8     5     4 ar  
     9     4    10 1   
    10     6     5 ar  
    11     5    19 1   
    12     6     7 ar  
    13     6    20 1   
    14     7    21 1   
    15    11    10 1   
    16    10    22 1   
    17    10    23 1   
    18    12    11 1   
    19    17    12 ar  
    20    13    12 ar  
    21    14    13 ar  
    22    13    24 1   
    23    15    14 ar  
    24    14    25 1   
    25    15    16 ar  
    26    15    26 1   
    27    16    17 ar  
    28    16    27 1   
    29    17    28 1   
@<TRIPOS>SUBSTRUCTURE
     1 4RG         1 TEMP              0 ****  ****    0 ROOT
