@<TRIPOS>MOLECULE
4RG
   28    29     1     0     0
SMALL
bcc


@<TRIPOS>ATOM
      1 CAA         0.0370    0.9400   -0.2590 c         1 4RG      0.908200
      2 CAB         1.4200    0.3250   -0.0890 ca        1 4RG     -0.127600
      3 CAC         2.0320    0.3120    1.1660 ca        1 4RG     -0.096000
      4 CAD         3.3100   -0.2360    1.3260 ca        1 4RG     -0.138300
      5 CAE         3.9740   -0.7860    0.2260 ca        1 4RG     -0.126000
      6 CAF         3.3600   -0.7840   -1.0260 ca        1 4RG     -0.169000
      7 CAG         2.0910   -0.2280   -1.1840 ca        1 4RG     -0.097000
      8 OAH        -0.4850    0.9120   -1.4090 o         1 4RG     -0.830800
      9 OAI        -0.5120    1.4470    0.7600 o         1 4RG     -0.830800
     10 CAJ         3.9500   -0.1750    2.6700 c3        1 4RG      0.185700
     11 OAK         4.7870   -1.3380    2.8250 os        1 4RG     -0.321900
     12 CAL         5.4520   -1.4410    4.0230 ca        1 4RG      0.146100
     13 CAM         6.2530   -2.5960    4.1550 ca        1 4RG     -0.188500
     14 CAN         6.9710   -2.7950    5.3260 ca        1 4RG     -0.100000
     15 CAO         6.9070   -1.8650    6.3670 ca        1 4RG     -0.183000
     16 CAP         6.1140   -0.7290    6.2310 ca        1 4RG     -0.100000
     17 CAQ         5.3830   -0.5060    5.0640 ca        1 4RG     -0.188500
     18 HAC         1.4830    0.7460    2.0170 ha        1 4RG      0.151000
     19 HAE         4.9730   -1.2260    0.3570 ha        1 4RG      0.117000
     20 HAF         3.8810   -1.2220   -1.8880 ha        1 4RG      0.106000
     21 HAG         1.5890   -0.2120   -2.1650 ha        1 4RG      0.151000
     22 HAJ         3.1770   -0.1720    3.4850 h1        1 4RG      0.039200
     23 HAJA        4.5940    0.7430    2.7560 h1        1 4RG      0.039200
     24 HAM         6.2900   -3.3190    3.3290 ha        1 4RG      0.144000
     25 HAN         7.5960   -3.6940    5.4340 ha        1 4RG      0.122500
     26 HAO         7.4790   -2.0320    7.2900 ha        1 4RG      0.121000
     27 HAP         6.0600    0.0050    7.0490 ha        1 4RG      0.122500
     28 HAQ         4.7610    0.3950    4.9750 ha        1 4RG      0.144000
@<TRIPOS>BOND
     1    1    2 1   
     2    1    8 1   
     3    1    9 1   
     4    2    3 ar  
     5    2    7 ar  
     6    3    4 ar  
     7    3   18 1   
     8    4    5 ar  
     9    4   10 1   
    10    5    6 ar  
    11    5   19 1   
    12    6    7 ar  
    13    6   20 1   
    14    7   21 1   
    15   10   11 1   
    16   10   22 1   
    17   10   23 1   
    18   11   12 1   
    19   12   13 ar  
    20   12   17 ar  
    21   13   14 ar  
    22   13   24 1   
    23   14   15 ar  
    24   14   25 1   
    25   15   16 ar  
    26   15   26 1   
    27   16   17 ar  
    28   16   27 1   
    29   17   28 1   
@<TRIPOS>SUBSTRUCTURE
     1 4RG         1 TEMP              0 ****  ****    0 ROOT
