@<TRIPOS>MOLECULE
molecule
   53    56     1     0     0
SMALL
bcc


@<TRIPOS>ATOM
      1 C01          0.0000     0.0000     0.0000 c3         1 4RJ      -0.087100
      2 C02          1.5300     0.0000     0.0000 c3         1 4RJ      -0.038100
      3 C03          2.0310     0.0000     1.4220 ca         1 4RJ      -0.088300
      4 C04          2.2600    -1.2010     2.0710 ca         1 4RJ      -0.113000
      5 C05          2.7200    -1.2090     3.3720 ca         1 4RJ      -0.137000
      6 C06          2.9530    -0.0020     4.0330 ca         1 4RJ       0.147400
      7 C07          2.7190     1.2070     3.3720 ca         1 4RJ      -0.137000
      8 C08          2.2650     1.2000     2.0700 ca         1 4RJ      -0.113000
      9 N09          3.4070    -0.0010     5.3250 ne         1 4RJ      -0.619100
     10 C10          4.3860     0.8030     5.6760 cd         1 4RJ       0.502800
     11 S11          5.2310     1.9580     4.6330 ss         1 4RJ      -0.189800
     12 C12          6.3130     2.5460     5.9090 cc         1 4RJ      -0.122600
     13 C13          7.2780     3.4940     5.8090 cf         1 4RJ       0.040800
     14 C14          7.6350     4.0410     4.4920 ca         1 4RJ      -0.037800
     15 C15          8.3200     5.2590     4.3810 ca         1 4RJ      -0.302300
     16 C16          8.6370     5.7360     3.1170 ca         1 4RJ       0.698200
     17 N17          9.3170     6.9440     2.9890 nu         1 4RJ      -0.864600
     18 C18          9.5420     7.4830     1.7310 ca         1 4RJ       0.623200
     19 C19         10.1250     8.7450     1.6190 ca         1 4RJ      -0.319300
     20 C20         10.3460     9.2740     0.3760 ca         1 4RJ      -0.054000
     21 C21          9.9730     8.5190    -0.7480 ca         1 4RJ      -0.246900
     22 C22          9.3940     7.2630    -0.5610 ca         1 4RJ       0.462200
     23 N23          9.2030     6.7890     0.6530 nb         1 4RJ      -0.710000
     24 C24         10.1900     9.0470    -2.1070 c          1 4RJ       0.886200
     25 O25         10.6950    10.1410    -2.2610 o          1 4RJ      -0.836300
     26 O26          9.8290     8.3160    -3.1800 o          1 4RJ      -0.836300
     27 N27          8.3000     5.0560     2.0310 nb         1 4RJ      -0.649000
     28 C28          7.6550     3.9070     2.0970 ca         1 4RJ       0.463200
     29 C29          7.3050     3.3560     3.3110 ca         1 4RJ      -0.307300
     30 C30          5.9280     1.7770     7.1020 c          1 4RJ       0.710700
     31 O31          6.4740     1.9260     8.1790 o          1 4RJ      -0.609500
     32 N32          4.9420     0.9130     6.9200 n          1 4RJ      -0.374300
     33 C33          4.4590     0.0890     8.0310 c3         1 4RJ       0.092300
     34 H1          -0.3610    -0.8800     0.5180 hc         1 4RJ       0.034367
     35 H2          -0.3610     0.8890     0.5030 hc         1 4RJ       0.034367
     36 H3          -0.3610    -0.0080    -1.0210 hc         1 4RJ       0.034367
     37 H4           1.8910     0.8850    -0.5100 hc         1 4RJ       0.049200
     38 H5           1.8910    -0.8850    -0.5100 hc         1 4RJ       0.049200
     39 H6           2.0790    -2.1370     1.5560 ha         1 4RJ       0.133000
     40 H7           2.8990    -2.1500     3.8790 ha         1 4RJ       0.143500
     41 H8           2.9000     2.1470     3.8790 ha         1 4RJ       0.143500
     42 H9           2.0840     2.1360     1.5560 ha         1 4RJ       0.133000
     43 H11          7.8680     3.7560     6.6790 ha         1 4RJ       0.162000
     44 H12          8.4190     5.9050     5.2450 ha         1 4RJ       0.132000
     45 H13          9.6720     7.4070     3.8020 hn         1 4RJ       0.451800
     46 H14         10.4010     9.3010     2.5070 ha         1 4RJ       0.107000
     47 H15         10.7970    10.2520     0.2630 ha         1 4RJ       0.153000
     48 H16          9.1040     6.6710    -1.4210 h4         1 4RJ       0.053100
     49 H18          7.4020     3.3840     1.1830 h4         1 4RJ       0.029100
     50 H19          6.7760     2.4120     3.3540 ha         1 4RJ       0.148000
     51 H20          4.8080    -0.9280     7.9050 h1         1 4RJ       0.058033
     52 H21          3.3750     0.1000     8.0440 h1         1 4RJ       0.058033
     53 H22          4.8350     0.4870     8.9660 h1         1 4RJ       0.058033
@<TRIPOS>BOND
     1     1     2 1
     2     2     3 1
     3     3     4 ar
     4     3     8 ar
     5     4     5 ar
     6     8     7 ar
     7     5     6 ar
     8     7     6 ar
     9     6     9 1
    10    28    27 ar
    11    28    29 ar
    12    27    16 ar
    13    29    14 ar
    14     9    10 2
    15    11    10 1
    16    11    12 1
    17    16    17 1
    18    16    15 ar
    19    10    32 1
    20    14    15 ar
    21    14    13 1
    22    17    18 1
    23    12    13 2
    24    12    30 1
    25    32    30 1
    26    32    33 1
    27    18    23 ar
    28    18    19 ar
    29    23    22 ar
    30    30    31 2
    31    19    20 ar
    32    22    21 ar
    33    20    21 ar
    34    21    24 1
    35    24    25 1
    36    24    26 1
    37     1    34 1
    38     1    35 1
    39     1    36 1
    40     2    37 1
    41     2    38 1
    42     4    39 1
    43     5    40 1
    44     7    41 1
    45     8    42 1
    46    13    43 1
    47    15    44 1
    48    17    45 1
    49    19    46 1
    50    20    47 1
    51    22    48 1
    52    28    49 1
    53    29    50 1
    54    33    51 1
    55    33    52 1
    56    33    53 1
@<TRIPOS>SUBSTRUCTURE
     1 4RJ         1 TEMP              0 ****  ****    0 ROOT
