@<TRIPOS>MOLECULE
4RJ
   53    56     1     0     0
SMALL
bcc


@<TRIPOS>ATOM
      1 C01          0.0000     0.0000     0.0000 c3         1 4RJ       0.008900
      2 C02          1.5300     0.0000     0.0000 c3         1 4RJ       0.029900
      3 C03          2.0310     0.0000     1.4220 ca         1 4RJ      -0.096300
      4 C04          2.2600    -1.2010     2.0710 ca         1 4RJ      -0.084000
      5 C05          2.7200    -1.2090     3.3720 ca         1 4RJ      -0.114000
      6 C06          2.9530    -0.0020     4.0330 ca         1 4RJ       0.096400
      7 C07          2.7190     1.2070     3.3720 ca         1 4RJ      -0.114000
      8 C08          2.2650     1.2000     2.0700 ca         1 4RJ      -0.084000
      9 N09          3.4070    -0.0010     5.3250 ne         1 4RJ      -0.480100
     10 C10          4.3860     0.8030     5.6760 cd         1 4RJ       0.328800
     11 S11          5.2310     1.9580     4.6330 ss         1 4RJ      -0.267800
     12 C12          6.3130     2.5460     5.9090 cc         1 4RJ      -0.125600
     13 C13          7.2780     3.4940     5.8090 cf         1 4RJ       0.117800
     14 C14          7.6350     4.0410     4.4920 ca         1 4RJ      -0.052800
     15 C15          8.3200     5.2590     4.3810 ca         1 4RJ      -0.281300
     16 C16          8.6370     5.7360     3.1170 ca         1 4RJ       0.495200
     17 N17          9.3170     6.9440     2.9890 nu         1 4RJ      -0.403600
     18 C18          9.5420     7.4830     1.7310 ca         1 4RJ       0.420200
     19 C19         10.1250     8.7450     1.6190 ca         1 4RJ      -0.297300
     20 C20         10.3460     9.2740     0.3760 ca         1 4RJ      -0.027000
     21 C21          9.9730     8.5190    -0.7480 ca         1 4RJ      -0.236900
     22 C22          9.3940     7.2630    -0.5610 ca         1 4RJ       0.443200
     23 N23          9.2030     6.7890     0.6530 nb         1 4RJ      -0.599000
     24 C24         10.1900     9.0470    -2.1070 c          1 4RJ       0.979200
     25 O25         10.6950    10.1410    -2.2610 o          1 4RJ      -0.882300
     26 O26          9.8290     8.3160    -3.1800 o          1 4RJ      -0.882300
     27 N27          8.3000     5.0560     2.0310 nb         1 4RJ      -0.535000
     28 C28          7.6550     3.9070     2.0970 ca         1 4RJ       0.444200
     29 C29          7.3050     3.3560     3.3110 ca         1 4RJ      -0.299300
     30 C30          5.9280     1.7770     7.1020 c          1 4RJ       0.626700
     31 O31          6.4740     1.9260     8.1790 o          1 4RJ      -0.653500
     32 N32          4.9420     0.9130     6.9200 n          1 4RJ       0.024700
     33 C33          4.4590     0.0890     8.0310 c3         1 4RJ       0.055300
     34 H1          -0.3610    -0.1040    -1.0160 hc         1 4RJ       0.001033
     35 H2          -0.3610    -0.8280     0.5980 hc         1 4RJ       0.001033
     36 H3          -0.3610     0.9320     0.4180 hc         1 4RJ       0.001033
     37 H4           1.8920    -0.8840    -0.5100 hc         1 4RJ       0.017700
     38 H5           1.8910     0.8850    -0.5100 hc         1 4RJ       0.017700
     39 H6           2.0790    -2.1370     1.5560 ha         1 4RJ       0.107500
     40 H7           2.8990    -2.1500     3.8790 ha         1 4RJ       0.121500
     41 H8           2.9000     2.1470     3.8790 ha         1 4RJ       0.121500
     42 H9           2.0840     2.1360     1.5560 ha         1 4RJ       0.107500
     43 H11          7.8110     3.8200     6.6940 ha         1 4RJ       0.122000
     44 H12          8.4200     5.9050     5.2450 ha         1 4RJ       0.114000
     45 H13          9.6610     7.4140     3.8030 hn         1 4RJ       0.277800
     46 H14         10.4010     9.3010     2.5070 ha         1 4RJ       0.094000
     47 H15         10.7970    10.2520     0.2630 ha         1 4RJ       0.123000
     48 H16          9.1040     6.6710    -1.4210 h4         1 4RJ       0.010100
     49 H18          7.4020     3.3840     1.1830 h4         1 4RJ      -0.019900
     50 H19          6.7760     2.4120     3.3540 ha         1 4RJ       0.150000
     51 H20          5.1360     0.1820     8.8710 h1         1 4RJ       0.026033
     52 H21          4.4120    -0.9470     7.7180 h1         1 4RJ       0.026033
     53 H22          3.4710     0.4230     8.3250 h1         1 4RJ       0.026033
@<TRIPOS>BOND
     1     1     2 1   
     2     1    34 1   
     3     1    35 1   
     4     1    36 1   
     5     2     3 1   
     6     2    37 1   
     7     2    38 1   
     8     3     4 ar  
     9     3     8 ar  
    10     4     5 ar  
    11     4    39 1   
    12     5     6 ar  
    13     5    40 1   
    14     6     7 ar  
    15     6     9 1   
    16     7     8 ar  
    17     7    41 1   
    18     8    42 1   
    19     9    10 2   
    20    10    11 1   
    21    10    32 1   
    22    11    12 1   
    23    12    13 2   
    24    12    30 1   
    25    13    14 1   
    26    13    43 1   
    27    14    15 ar  
    28    14    29 ar  
    29    15    16 ar  
    30    15    44 1   
    31    16    17 1   
    32    16    27 ar  
    33    17    18 1   
    34    17    45 1   
    35    18    19 ar  
    36    18    23 ar  
    37    19    20 ar  
    38    19    46 1   
    39    20    21 ar  
    40    20    47 1   
    41    21    22 ar  
    42    21    24 1   
    43    22    23 ar  
    44    22    48 1   
    45    24    25 1   
    46    24    26 1   
    47    27    28 ar  
    48    28    29 ar  
    49    28    49 1   
    50    29    50 1   
    51    30    31 2   
    52    30    32 1   
    53    32    33 1   
    54    33    51 1   
    55    33    52 1   
    56    33    53 1   
@<TRIPOS>SUBSTRUCTURE
     1 4RJ         1 TEMP              0 ****  ****    0 ROOT
