@<TRIPOS>MOLECULE
molecule
   57    61     1     0     0
SMALL
bcc


@<TRIPOS>ATOM
      1 C01          0.0000     0.0000     0.0000 c3         1 4RK      -0.088100
      2 C02          1.5300     0.0000     0.0000 c3         1 4RK      -0.040100
      3 C03          2.0330     0.0000     1.4210 ca         1 4RK      -0.082300
      4 C04          2.2580     1.1990     2.0710 ca         1 4RK      -0.114500
      5 C05          2.7180     1.2070     3.3710 ca         1 4RK      -0.133500
      6 C06          2.9570    -0.0010     4.0310 ca         1 4RK       0.139400
      7 C07          2.7280    -1.2090     3.3680 ca         1 4RK      -0.133500
      8 C08          2.2620    -1.2010     2.0690 ca         1 4RK      -0.114500
      9 N09          3.4140    -0.0020     5.3210 ne         1 4RK      -0.595100
     10 C10          2.8780    -0.8090     6.2070 cd         1 4RK       0.506800
     11 S11          1.5690    -1.9700     5.9240 ss         1 4RK      -0.212800
     12 C12          1.5320    -2.5620     7.5960 cc         1 4RK      -0.089600
     13 C13          0.7230    -3.5140     8.1210 cf         1 4RK       0.004800
     14 C14         -0.3810    -4.0650     7.3200 ca         1 4RK      -0.008800
     15 C15         -0.9800    -5.2830     7.6630 ca         1 4RK      -0.287300
     16 C16         -2.0200    -5.7640     6.8780 ca         1 4RK       0.690200
     17 N17         -2.6250    -6.9730     7.2040 nu         1 4RK      -0.774300
     18 C18         -3.5900    -7.5200     6.3570 ca         1 4RK       0.186600
     19 C19         -3.4910    -7.3360     4.9830 ca         1 4RK      -0.155000
     20 C20         -4.4430    -7.8750     4.1440 ca         1 4RK      -0.072000
     21 C21         -5.5060    -8.6080     4.6770 ca         1 4RK      -0.173500
     22 C22         -5.6020    -8.7900     6.0570 ca         1 4RK      -0.072000
     23 C23         -4.6450    -8.2540     6.8910 ca         1 4RK      -0.155000
     24 C24         -6.5290    -9.1860     3.7800 cc         1 4RK       0.485000
     25 N25         -7.6130    -9.9110     4.1540 na         1 4RK      -0.193400
     26 N26         -8.2740   -10.2330     2.9560 nc         1 4RK      -0.216800
     27 N27         -7.5850    -9.7130     1.9980 nd         1 4RK      -0.004000
     28 N28         -6.5640    -9.0930     2.4670 nd         1 4RK      -0.418000
     29 N29         -2.4410    -5.0840     5.8220 nb         1 4RK      -0.743000
     30 C30         -1.9000    -3.9320     5.4690 ca         1 4RK       0.471200
     31 C31         -0.8680    -3.3810     6.1950 ca         1 4RK      -0.291300
     32 C32          2.5780    -1.7900     8.2840 c          1 4RK       0.707700
     33 O33          2.8310    -1.9410     9.4640 o          1 4RK      -0.594500
     34 N34          3.2280    -0.9220     7.5250 n          1 4RK      -0.372300
     35 C35          4.2970    -0.0940     8.0860 c3         1 4RK       0.091300
     36 H1          -0.3610    -0.9280     0.4260 hc         1 4RK       0.036700
     37 H2          -0.3610     0.8330     0.5910 hc         1 4RK       0.036700
     38 H3          -0.3610     0.0960    -1.0170 hc         1 4RK       0.036700
     39 H4           1.8910     0.8840    -0.5110 hc         1 4RK       0.048700
     40 H5           1.8900    -0.8840    -0.5110 hc         1 4RK       0.048700
     41 H6           2.0720     2.1350     1.5580 ha         1 4RK       0.135500
     42 H7           2.8940     2.1470     3.8800 ha         1 4RK       0.144500
     43 H8           2.9090    -2.1500     3.8740 ha         1 4RK       0.144500
     44 H9           2.0840    -2.1370     1.5520 ha         1 4RK       0.135500
     45 H10          0.8110    -3.7790     9.1680 ha         1 4RK       0.169000
     46 H11         -0.5140    -5.9280     8.3990 ha         1 4RK       0.144000
     47 H12         -2.3570    -7.4580     8.0370 hn         1 4RK       0.459800
     48 H13         -2.6660    -6.7680     4.5710 ha         1 4RK       0.152000
     49 H14         -4.3660    -7.7320     3.0730 ha         1 4RK       0.143000
     50 H15         -6.4250    -9.3590     6.4720 ha         1 4RK       0.143000
     51 H16         -4.7190    -8.3950     7.9620 ha         1 4RK       0.152000
     52 H17         -7.8850   -10.1630     5.0840 hn         1 4RK       0.336700
     53 H18         -2.2780    -3.4100     4.5980 h4         1 4RK       0.033100
     54 H19         -0.4310    -2.4360     5.8960 ha         1 4RK       0.163000
     55 H20          4.1650     0.9320     7.7660 h1         1 4RK       0.062367
     56 H21          4.2600    -0.1420     9.1680 h1         1 4RK       0.062367
     57 H22          5.2560    -0.4600     7.7410 h1         1 4RK       0.062367
@<TRIPOS>BOND
     1     1     2 1
     2     2     3 1
     3     3     8 ar
     4     3     4 ar
     5     8     7 ar
     6     4     5 ar
     7     7     6 ar
     8    30    29 ar
     9    30    31 ar
    10     5     6 ar
    11    29    16 ar
    12     6     9 1
    13    31    14 ar
    14    16    17 1
    15    16    15 ar
    16    11    10 1
    17    11    12 1
    18     9    10 2
    19    17    18 1
    20    14    15 ar
    21    14    13 1
    22    10    34 1
    23    12    13 2
    24    12    32 1
    25    18    23 ar
    26    18    19 ar
    27    23    22 ar
    28    34    32 1
    29    34    35 1
    30    32    33 2
    31    19    20 ar
    32    22    21 ar
    33    20    21 ar
    34    21    24 1
    35    24    28 2
    36    24    25 1
    37    28    27 1
    38    25    26 1
    39    27    26 2
    40     1    36 1
    41     1    37 1
    42     1    38 1
    43     2    39 1
    44     2    40 1
    45     4    41 1
    46     5    42 1
    47     7    43 1
    48     8    44 1
    49    13    45 1
    50    15    46 1
    51    17    47 1
    52    19    48 1
    53    20    49 1
    54    22    50 1
    55    23    51 1
    56    25    52 1
    57    30    53 1
    58    31    54 1
    59    35    55 1
    60    35    56 1
    61    35    57 1
@<TRIPOS>SUBSTRUCTURE
     1 4RK         1 TEMP              0 ****  ****    0 ROOT
