@<TRIPOS>MOLECULE
4RK
   57    61     1     0     0
SMALL
bcc


@<TRIPOS>ATOM
      1 C01          0.0000     0.0000     0.0000 c3         1 4RK       0.008900
      2 C02          1.5300     0.0000     0.0000 c3         1 4RK       0.028900
      3 C03          2.0330     0.0000     1.4210 ca         1 4RK      -0.089300
      4 C04          2.2580     1.1990     2.0710 ca         1 4RK      -0.085000
      5 C05          2.7180     1.2070     3.3710 ca         1 4RK      -0.109000
      6 C06          2.9570    -0.0010     4.0310 ca         1 4RK       0.084400
      7 C07          2.7280    -1.2090     3.3680 ca         1 4RK      -0.109000
      8 C08          2.2620    -1.2010     2.0690 ca         1 4RK      -0.085000
      9 N09          3.4140    -0.0020     5.3210 ne         1 4RK      -0.450100
     10 C10          2.8780    -0.8090     6.2070 cd         1 4RK       0.325800
     11 S11          1.5690    -1.9700     5.9240 ss         1 4RK      -0.283800
     12 C12          1.5320    -2.5620     7.5960 cc         1 4RK      -0.090600
     13 C13          0.7230    -3.5140     8.1210 cf         1 4RK       0.075800
     14 C14         -0.3810    -4.0650     7.3200 ca         1 4RK      -0.015800
     15 C15         -0.9800    -5.2830     7.6630 ca         1 4RK      -0.263300
     16 C16         -2.0200    -5.7640     6.8780 ca         1 4RK       0.492200
     17 N17         -2.6250    -6.9730     7.2040 nu         1 4RK      -0.314300
     18 C18         -3.5900    -7.5200     6.3570 ca         1 4RK       0.029600
     19 C19         -3.4910    -7.3360     4.9830 ca         1 4RK      -0.130500
     20 C20         -4.4430    -7.8750     4.1440 ca         1 4RK      -0.046000
     21 C21         -5.5060    -8.6080     4.6770 ca         1 4RK      -0.171500
     22 C22         -5.6020    -8.7900     6.0570 ca         1 4RK      -0.046000
     23 C23         -4.6450    -8.2540     6.8910 ca         1 4RK      -0.130500
     24 C24         -6.5290    -9.1860     3.7800 cc         1 4RK       0.317000
     25 N25         -7.6130    -9.9110     4.1540 na         1 4RK       0.284600
     26 N26         -8.2740   -10.2330     2.9560 nc         1 4RK      -0.404800
     27 N27         -7.5850    -9.7130     1.9980 nd         1 4RK       0.035000
     28 N28         -6.5640    -9.0930     2.4670 nd         1 4RK      -0.396000
     29 N29         -2.4410    -5.0840     5.8220 nb         1 4RK      -0.629000
     30 C30         -1.9000    -3.9320     5.4690 ca         1 4RK       0.457200
     31 C31         -0.8680    -3.3810     6.1950 ca         1 4RK      -0.284300
     32 C32          2.5780    -1.7900     8.2840 c          1 4RK       0.618700
     33 O33          2.8310    -1.9410     9.4640 o          1 4RK      -0.638500
     34 N34          3.2280    -0.9220     7.5250 n          1 4RK       0.027700
     35 C35          4.2970    -0.0940     8.0860 c3         1 4RK       0.055300
     36 H1          -0.3610     0.1570    -1.0090 hc         1 4RK       0.003033
     37 H2          -0.3610    -0.9530     0.3680 hc         1 4RK       0.003033
     38 H3          -0.3610     0.7950     0.6410 hc         1 4RK       0.003033
     39 H4           1.8910     0.8840    -0.5110 hc         1 4RK       0.016700
     40 H5           1.8910    -0.8840    -0.5110 hc         1 4RK       0.016700
     41 H6           2.0720     2.1350     1.5580 ha         1 4RK       0.109000
     42 H7           2.8940     2.1470     3.8800 ha         1 4RK       0.122000
     43 H8           2.9090    -2.1500     3.8740 ha         1 4RK       0.122000
     44 H9           2.0840    -2.1370     1.5520 ha         1 4RK       0.109000
     45 H10          0.8810    -3.8600     9.1360 ha         1 4RK       0.130000
     46 H11         -0.5140    -5.9270     8.3990 ha         1 4RK       0.122000
     47 H12         -2.3360    -7.4720     8.0220 hn         1 4RK       0.289800
     48 H13         -2.6660    -6.7680     4.5710 ha         1 4RK       0.126000
     49 H14         -4.3660    -7.7320     3.0730 ha         1 4RK       0.111500
     50 H15         -6.4250    -9.3590     6.4720 ha         1 4RK       0.111500
     51 H16         -4.7190    -8.3950     7.9620 ha         1 4RK       0.126000
     52 H17         -7.8850   -10.1630     5.0840 hn         1 4RK       0.172700
     53 H18         -2.2780    -3.4100     4.5980 h4         1 4RK      -0.014900
     54 H19         -0.4310    -2.4360     5.8960 ha         1 4RK       0.163000
     55 H20          3.9410     0.9220     8.2070 h1         1 4RK       0.029700
     56 H21          5.1490    -0.1020     7.4170 h1         1 4RK       0.029700
     57 H22          4.5910    -0.4900     9.0510 h1         1 4RK       0.029700
@<TRIPOS>BOND
     1     1     2 1   
     2     1    36 1   
     3     1    37 1   
     4     1    38 1   
     5     2     3 1   
     6     2    39 1   
     7     2    40 1   
     8     3     4 ar  
     9     3     8 ar  
    10     4     5 ar  
    11     4    41 1   
    12     5     6 ar  
    13     5    42 1   
    14     6     7 ar  
    15     6     9 1   
    16     7     8 ar  
    17     7    43 1   
    18     8    44 1   
    19     9    10 2   
    20    10    11 1   
    21    10    34 1   
    22    11    12 1   
    23    12    13 2   
    24    12    32 1   
    25    13    14 1   
    26    13    45 1   
    27    14    15 ar  
    28    14    31 ar  
    29    15    16 ar  
    30    15    46 1   
    31    16    17 1   
    32    16    29 ar  
    33    17    18 1   
    34    17    47 1   
    35    18    19 ar  
    36    18    23 ar  
    37    19    20 ar  
    38    19    48 1   
    39    20    21 ar  
    40    20    49 1   
    41    21    22 ar  
    42    21    24 1   
    43    22    23 ar  
    44    22    50 1   
    45    23    51 1   
    46    24    25 1   
    47    24    28 2   
    48    25    26 1   
    49    25    52 1   
    50    26    27 2   
    51    27    28 1   
    52    29    30 ar  
    53    30    31 ar  
    54    30    53 1   
    55    31    54 1   
    56    32    33 2   
    57    32    34 1   
    58    34    35 1   
    59    35    55 1   
    60    35    56 1   
    61    35    57 1   
@<TRIPOS>SUBSTRUCTURE
     1 4RK         1 TEMP              0 ****  ****    0 ROOT
