@<TRIPOS>MOLECULE
4RL
   83    84     1     0     0
SMALL
bcc


@<TRIPOS>ATOM
      1 C1           0.0000     0.0000     0.0000 c          1 4RL       0.621500
      2 C2           1.3030    -0.3750     2.4170 c          1 4RL       0.595500
      3 C3          -0.1210    -0.8270     2.3070 c3         1 4RL      -0.039300
      4 C4           1.4990     0.0000     0.0000 c3         1 4RL      -0.030300
      5 N5           4.1680    -2.1920    -1.4570 ns         1 4RL      -0.151900
      6 C8          -3.2410    -4.5420     3.0090 c3         1 4RL      -0.172500
      7 C9          -1.8290    -4.1010     2.7200 c          1 4RL       0.545100
      8 C10         -3.4130    -4.7450     4.5160 c3         1 4RL      -0.065400
      9 C13         -3.4440     2.7450     2.7300 ca         1 4RL      -0.099000
     10 C14         -2.9990     1.4570     2.4970 ca         1 4RL      -0.086500
     11 C15         -2.6690     1.0620     1.2140 ca         1 4RL      -0.143300
     12 C16         -2.7860     1.9550     0.1650 ca         1 4RL      -0.086500
     13 C17         -3.2290     3.2430     0.3980 ca         1 4RL      -0.099000
     14 C20          6.0730    -2.9620    -2.7460 c          1 4RL       0.580100
     15 C21          6.2540    -2.7020    -0.2870 c3         1 4RL      -0.058700
     16 C22          5.8080    -4.1540    -0.0970 c3         1 4RL      -0.037400
     17 C23          5.8020    -1.8680     0.9120 c3         1 4RL      -0.124100
     18 C24          6.5310    -4.7560     1.1100 c3         1 4RL      -0.006100
     19 C27          7.3720    -5.3110    -4.0020 c3         1 4RL      -0.086100
     20 C28          9.3440    -3.8030    -4.2770 c3         1 4RL      -0.086100
     21 C26          7.2130    -3.3060    -5.4840 c3         1 4RL      -0.086100
     22 N6           7.3850    -3.0600    -3.0430 ns         1 4RL      -0.186900
     23 C19          5.6280    -2.1410    -1.5650 c3         1 4RL      -0.074300
     24 C5           2.0000    -1.2460    -0.7320 c3         1 4RL      -0.111400
     25 O1          -0.5820     0.3540    -1.0040 o          1 4RL      -0.668500
     26 N1           2.0270     0.0000     1.3580 ns         1 4RL      -0.184900
     27 O2           1.8210    -0.3460     3.5140 o          1 4RL      -0.659500
     28 C6          -0.1670    -2.3550     2.3640 c3         1 4RL      -0.009000
     29 N3          -1.5170    -2.7900     2.7310 ns         1 4RL      -0.125900
     30 O4          -0.9740    -4.9260     2.4760 o          1 4RL      -0.652100
     31 N4          -3.5130    -5.8050     2.3110 nz         1 4RL       0.062400
     32 C18         -4.8530    -5.0670     4.8190 c          1 4RL       0.976600
     33 O5          -5.6600    -5.1270     3.9210 o          1 4RL      -0.843800
     34 O7          -5.2410    -5.2870     6.0850 o          1 4RL      -0.843800
     35 N2          -0.7240    -0.3790     1.0580 n          1 4RL      -0.143800
     36 C11         -2.1850    -0.3410     0.9590 c3         1 4RL       0.111300
     37 C12         -3.5590     3.6370     1.6810 ca         1 4RL      -0.084000
     38 H1          -0.6090    -0.4150     3.1820 h1         1 4RL       0.075700
     39 H2           1.8700     0.9190    -0.4370 h1         1 4RL       0.082700
     40 H3           3.6870    -2.7130    -2.1630 hn         1 4RL       0.201500
     41 H4          -3.9010    -3.7540     2.6680 hx         1 4RL       0.099700
     42 H5          -3.1200    -3.7180     4.6940 hc         1 4RL       0.019200
     43 H6          -2.5140    -5.3380     4.6340 hc         1 4RL       0.019200
     44 H9          -2.4170     1.6840    -0.8170 ha         1 4RL       0.116500
     45 H10         -3.3200     3.9420    -0.4240 ha         1 4RL       0.107500
     46 H11          7.3320    -2.6600    -0.3850 hc         1 4RL       0.025700
     47 H12          6.0860    -4.7120    -0.9830 hc         1 4RL       0.022200
     48 H13          4.7440    -4.1940     0.1020 hc         1 4RL       0.022200
     49 H14          5.5030    -2.5260     1.7190 hc         1 4RL       0.054367
     50 H15          6.8810    -1.7670     0.9360 hc         1 4RL       0.054367
     51 H16          5.1990    -1.0100     0.6440 hc         1 4RL       0.054367
     52 H17          7.5070    -5.1140     0.8040 hc         1 4RL       0.005033
     53 H18          5.9730    -5.6130     1.4660 hc         1 4RL       0.005033
     54 H19          6.6510    -4.0560     1.9280 hc         1 4RL       0.005033
     55 H20          6.3220    -5.4180    -3.7550 hc         1 4RL       0.034033
     56 H21          8.0060    -5.9060    -3.3550 hc         1 4RL       0.034033
     57 H22          7.4480    -5.8020    -4.9640 hc         1 4RL       0.034033
     58 H23          9.7640    -2.8120    -4.1580 hc         1 4RL       0.034033
     59 H24         10.1010    -4.5740    -4.2030 hc         1 4RL       0.034033
     60 H25          8.8680    -3.9190    -5.2440 hc         1 4RL       0.034033
     61 H26          6.2080    -3.6710    -5.6590 hc         1 4RL       0.034033
     62 H27          7.8890    -3.9230    -6.0640 hc         1 4RL       0.034033
     63 H28          7.2540    -2.3000    -5.8840 hc         1 4RL       0.034033
     64 H29          8.0880    -2.6960    -2.4320 hn         1 4RL       0.186500
     65 H30          5.9710    -1.1180    -1.6640 h1         1 4RL       0.064700
     66 H31          1.7010    -2.1490    -0.2140 hc         1 4RL       0.046700
     67 H32          1.5790    -1.2400    -1.7310 hc         1 4RL       0.046700
     68 H33          2.9940     0.2080     1.5080 hn         1 4RL       0.227500
     69 H34          0.7130    -2.9040     2.0510 h1         1 4RL       0.044200
     70 H35         -0.4820    -2.4560     1.3320 h1         1 4RL       0.044200
     71 H36         -2.1160    -2.1420     3.2040 hn         1 4RL       0.194500
     72 H37         -4.5000    -5.9650     2.2760 hn         1 4RL       0.230800
     73 H38         -3.1120    -6.5770     2.8060 hn         1 4RL       0.230800
     74 H41         -2.5650    -0.9600     1.7620 h1         1 4RL       0.034200
     75 H42         -2.4910    -0.6630    -0.0290 h1         1 4RL       0.034200
     76 H43         -3.9510     4.6310     1.8600 ha         1 4RL       0.105000
     77 C7           3.5010    -1.1930    -0.8440 c          1 4RL       0.577100
     78 O6           5.2520    -3.5350    -3.4310 o          1 4RL      -0.667100
     79 O3           4.1120    -0.2510    -0.3820 o          1 4RL      -0.658100
     80 C25          7.8170    -3.8600    -4.1920 c3         1 4RL       0.082400
     81 H7          -3.6710     3.0320     3.7490 ha         1 4RL       0.107500
     82 H431        -3.0620    -5.7960     1.4170 hn         1 4RL       0.230800
     83 H8          -2.9390     0.7700     3.3320 ha         1 4RL       0.116500
@<TRIPOS>BOND
     1     1     4 1   
     2     1    25 2   
     3     1    35 1   
     4     2     3 1   
     5     2    26 1   
     6     2    27 2   
     7     3    28 1   
     8     3    35 1   
     9     3    38 1   
    10     4    24 1   
    11     4    26 1   
    12     4    39 1   
    13     5    23 1   
    14     5    40 1   
    15     5    77 1   
    16     6     7 1   
    17     6     8 1   
    18     6    31 1   
    19     6    41 1   
    20     7    29 1   
    21     7    30 2   
    22     8    32 1   
    23     8    42 1   
    24     8    43 1   
    25     9    10 ar  
    26     9    37 ar  
    27     9    81 1   
    28    10    11 ar  
    29    10    83 1   
    30    11    12 ar  
    31    11    36 1   
    32    12    13 ar  
    33    12    44 1   
    34    13    37 ar  
    35    13    45 1   
    36    14    22 1   
    37    14    23 1   
    38    14    78 2   
    39    15    16 1   
    40    15    17 1   
    41    15    23 1   
    42    15    46 1   
    43    16    18 1   
    44    16    47 1   
    45    16    48 1   
    46    17    49 1   
    47    17    50 1   
    48    17    51 1   
    49    18    52 1   
    50    18    53 1   
    51    18    54 1   
    52    19    55 1   
    53    19    56 1   
    54    19    57 1   
    55    19    80 1   
    56    20    58 1   
    57    20    59 1   
    58    20    60 1   
    59    20    80 1   
    60    21    61 1   
    61    21    62 1   
    62    21    63 1   
    63    21    80 1   
    64    22    64 1   
    65    22    80 1   
    66    23    65 1   
    67    24    66 1   
    68    24    67 1   
    69    24    77 1   
    70    26    68 1   
    71    28    29 1   
    72    28    69 1   
    73    28    70 1   
    74    29    71 1   
    75    31    72 1   
    76    31    73 1   
    77    31    82 1   
    78    32    33 1   
    79    32    34 1   
    80    35    36 1   
    81    36    74 1   
    82    36    75 1   
    83    37    76 1   
    84    77    79 2   
@<TRIPOS>SUBSTRUCTURE
     1 4RL         1 TEMP              0 ****  ****    0 ROOT
