@<TRIPOS>MOLECULE
4RM
   47    49     1     0     0
SMALL
bcc


@<TRIPOS>ATOM
      1 O01          0.0000     0.0000     0.0000 o          1 4RM      -0.647500
      2 C02          1.2160     0.0000     0.0000 c          1 4RM       0.619700
      3 N03          1.9250     0.0000     1.1170 n          1 4RM       0.035700
      4 C04          1.2610    -0.0000     2.4220 c3         1 4RM       0.022000
      5 C05          1.0300    -1.4430     2.8760 c3         1 4RM       0.190400
      6 O06          2.2900    -2.0820     3.0920 os         1 4RM      -0.409600
      7 C07          2.1860    -3.4420     3.5210 c3         1 4RM       0.252700
      8 C08          3.2900    -0.0000     1.0290 cc         1 4RM       0.329800
      9 S09          3.6930    -0.0010    -0.6960 ss         1 4RM      -0.289800
     10 C10          2.0050    -0.0060    -1.2410 cc         1 4RM      -0.094600
     11 C11          1.5440    -0.0090    -2.5160 cf         1 4RM       0.079800
     12 C12          2.4820     0.1600    -3.6370 ca         1 4RM      -0.065800
     13 C13          2.1230    -0.2130    -4.9410 ca         1 4RM      -0.212300
     14 C14          3.0340    -0.0350    -5.9610 ca         1 4RM       0.405200
     15 N15          4.2260     0.4790    -5.7240 nb         1 4RM      -0.572000
     16 C16          4.6050     0.8430    -4.5140 ca         1 4RM       0.405200
     17 C17          3.7580     0.7070    -3.4340 ca         1 4RM      -0.212300
     18 N18          4.1400     0.0000     2.0310 nf         1 4RM      -0.428100
     19 C19          5.4860     0.0000     1.7870 ca         1 4RM       0.087400
     20 C20          6.3280     0.8550     2.5020 ca         1 4RM      -0.109000
     21 C21          7.6850     0.8480     2.2520 ca         1 4RM      -0.086000
     22 C22          8.2110    -0.0000     1.2940 ca         1 4RM      -0.093300
     23 C23          9.6950    -0.0010     1.0260 c3         1 4RM       0.029900
     24 C24         10.3770    -1.0210     1.9390 c3         1 4RM       0.008900
     25 C25          7.3830    -0.8500     0.5820 ca         1 4RM      -0.086000
     26 C26          6.0250    -0.8580     0.8260 ca         1 4RM      -0.109000
     27 H1           1.8850     0.5100     3.1460 h1         1 4RM       0.053200
     28 H2           0.3090     0.5100     2.3430 h1         1 4RM       0.053200
     29 H3           0.4800    -1.9790     2.1110 h1         1 4RM       0.002700
     30 H4           0.4610    -1.4450     3.7980 h1         1 4RM       0.002700
     31 H5           3.1670    -3.8100     3.7960 h1         1 4RM      -0.011967
     32 H6           1.7860    -4.0450     2.7150 h1         1 4RM      -0.011967
     33 H7           1.5250    -3.5010     4.3780 h1         1 4RM      -0.011967
     34 H8           0.4770    -0.0070    -2.7030 ha         1 4RM       0.129000
     35 H10          1.1460    -0.6350    -5.1440 ha         1 4RM       0.138500
     36 H11          2.7670    -0.3200    -6.9710 h4         1 4RM      -0.017400
     37 H12          5.5930     1.2620    -4.3680 h4         1 4RM      -0.017400
     38 H13          4.0770     1.0090    -2.4440 ha         1 4RM       0.138500
     39 H14          5.9180     1.5200     3.2530 ha         1 4RM       0.122000
     40 H15          8.3400     1.5100     2.8050 ha         1 4RM       0.108000
     41 H16          9.8740    -0.2660    -0.0090 hc         1 4RM       0.015700
     42 H17         10.0980     0.9850     1.2210 hc         1 4RM       0.015700
     43 H18         10.0710    -2.0200     1.6560 hc         1 4RM       0.002700
     44 H19         11.4520    -0.9310     1.8400 hc         1 4RM       0.002700
     45 H20         10.0920    -0.8330     2.9670 hc         1 4RM       0.002700
     46 H21          7.8020    -1.5130    -0.1650 ha         1 4RM       0.108000
     47 H22          5.3770    -1.5230     0.2680 ha         1 4RM       0.122000
@<TRIPOS>BOND
     1     1     2 2   
     2     2     3 1   
     3     2    10 1   
     4     3     4 1   
     5     3     8 1   
     6     4     5 1   
     7     4    27 1   
     8     4    28 1   
     9     5     6 1   
    10     5    29 1   
    11     5    30 1   
    12     6     7 1   
    13     7    31 1   
    14     7    32 1   
    15     7    33 1   
    16     8     9 1   
    17     8    18 2   
    18     9    10 1   
    19    10    11 2   
    20    11    12 1   
    21    11    34 1   
    22    12    13 ar  
    23    12    17 ar  
    24    13    14 ar  
    25    13    35 1   
    26    14    15 ar  
    27    14    36 1   
    28    15    16 ar  
    29    16    17 ar  
    30    16    37 1   
    31    17    38 1   
    32    18    19 1   
    33    19    20 ar  
    34    19    26 ar  
    35    20    21 ar  
    36    20    39 1   
    37    21    22 ar  
    38    21    40 1   
    39    22    23 1   
    40    22    25 ar  
    41    23    24 1   
    42    23    41 1   
    43    23    42 1   
    44    24    43 1   
    45    24    44 1   
    46    24    45 1   
    47    25    26 ar  
    48    25    46 1   
    49    26    47 1   
@<TRIPOS>SUBSTRUCTURE
     1 4RM         1 TEMP              0 ****  ****    0 ROOT
