@<TRIPOS>MOLECULE
molecule
   47    49     1     0     0
SMALL
bcc


@<TRIPOS>ATOM
      1 O01          0.0000     0.0000     0.0000 o          1 4RM      -0.603500
      2 C02          1.2160     0.0000     0.0000 c          1 4RM       0.707700
      3 N03          1.9250     0.0000     1.1170 n          1 4RM      -0.365300
      4 C04          1.2610    -0.0000     2.4220 c3         1 4RM       0.107000
      5 C05          1.0300    -1.4430     2.8760 c3         1 4RM       0.116400
      6 O06          2.2900    -2.0820     3.0920 os         1 4RM      -0.416600
      7 C07          2.1860    -3.4420     3.5210 c3         1 4RM       0.127700
      8 C08          3.2900    -0.0000     1.0290 cc         1 4RM       0.514800
      9 S09          3.6930    -0.0010    -0.6960 ss         1 4RM      -0.221800
     10 C10          2.0050    -0.0060    -1.2410 cc         1 4RM      -0.093600
     11 C11          1.5440    -0.0090    -2.5160 cf         1 4RM       0.006800
     12 C12          2.4820     0.1600    -3.6370 ca         1 4RM      -0.049800
     13 C13          2.1230    -0.2130    -4.9410 ca         1 4RM      -0.236300
     14 C14          3.0340    -0.0350    -5.9610 ca         1 4RM       0.422200
     15 N15          4.2260     0.4790    -5.7240 nb         1 4RM      -0.683000
     16 C16          4.6050     0.8430    -4.5140 ca         1 4RM       0.422200
     17 C17          3.7580     0.7070    -3.4340 ca         1 4RM      -0.236300
     18 N18          4.1400     0.0000     2.0310 nf         1 4RM      -0.575100
     19 C19          5.4860     0.0000     1.7870 ca         1 4RM       0.143400
     20 C20          6.3280     0.8550     2.5020 ca         1 4RM      -0.133500
     21 C21          7.6850     0.8480     2.2520 ca         1 4RM      -0.115500
     22 C22          8.2110    -0.0000     1.2940 ca         1 4RM      -0.086300
     23 C23          9.6950    -0.0010     1.0260 c3         1 4RM      -0.039100
     24 C24         10.3770    -1.0210     1.9390 c3         1 4RM      -0.087100
     25 C25          7.3830    -0.8500     0.5820 ca         1 4RM      -0.115500
     26 C26          6.0250    -0.8580     0.8260 ca         1 4RM      -0.133500
     27 H1           0.3090     0.5100     2.3430 h1         1 4RM       0.084700
     28 H2           1.8850     0.5100     3.1460 h1         1 4RM       0.084700
     29 H3           0.4610    -1.4450     3.7980 h1         1 4RM       0.035700
     30 H4           0.4800    -1.9790     2.1110 h1         1 4RM       0.035700
     31 H5           3.1480    -3.7800     3.8860 h1         1 4RM       0.030367
     32 H6           1.8780    -4.0610     2.6870 h1         1 4RM       0.030367
     33 H7           1.4520    -3.5150     4.3150 h1         1 4RM       0.030367
     34 H8           0.4770    -0.0070    -2.7030 ha         1 4RM       0.168000
     35 H10          1.1460    -0.6350    -5.1440 ha         1 4RM       0.153000
     36 H11          2.7670    -0.3200    -6.9710 h4         1 4RM       0.028100
     37 H12          5.5930     1.2620    -4.3680 h4         1 4RM       0.028100
     38 H13          4.0770     1.0090    -2.4440 ha         1 4RM       0.153000
     39 H14          5.9180     1.5200     3.2530 ha         1 4RM       0.145000
     40 H15          8.3400     1.5100     2.8050 ha         1 4RM       0.133500
     41 H16          9.8740    -0.2660    -0.0090 hc         1 4RM       0.046700
     42 H17         10.0980     0.9850     1.2210 hc         1 4RM       0.046700
     43 H18         10.0710    -2.0200     1.6560 hc         1 4RM       0.036700
     44 H19         10.0920    -0.8330     2.9670 hc         1 4RM       0.036700
     45 H20         11.4520    -0.9310     1.8400 hc         1 4RM       0.036700
     46 H21          7.8020    -1.5130    -0.1650 ha         1 4RM       0.133500
     47 H22          5.3770    -1.5230     0.2680 ha         1 4RM       0.145000
@<TRIPOS>BOND
     1    24    23 1
     2    23    22 1
     3    22    21 ar
     4    22    25 ar
     5    21    20 ar
     6    25    26 ar
     7    16    15 ar
     8    16    17 ar
     9    20    19 ar
    10    26    19 ar
    11    15    14 ar
    12    19    18 1
    13    17    12 ar
    14    14    13 ar
    15     9     8 1
    16     9    10 1
    17    12    13 ar
    18    12    11 1
    19    18     8 2
    20     8     3 1
    21    10    11 2
    22    10     2 1
    23     3     2 1
    24     3     4 1
    25     2     1 2
    26     6     7 1
    27     6     5 1
    28     4     5 1
    29     4    27 1
    30     4    28 1
    31     5    29 1
    32     5    30 1
    33     7    31 1
    34     7    32 1
    35     7    33 1
    36    11    34 1
    37    13    35 1
    38    14    36 1
    39    16    37 1
    40    17    38 1
    41    20    39 1
    42    21    40 1
    43    23    41 1
    44    23    42 1
    45    24    43 1
    46    24    44 1
    47    24    45 1
    48    25    46 1
    49    26    47 1
@<TRIPOS>SUBSTRUCTURE
     1 4RM         1 TEMP              0 ****  ****    0 ROOT
