@<TRIPOS>MOLECULE
molecule
   43    45     1     0     0
SMALL
bcc


@<TRIPOS>ATOM
      1 C1           1.5310     0.0000     0.0000 c3         1 4RN      -0.087700
      2 C2           0.0000     0.0000     0.0000 c3         1 4RN       0.162800
      3 C3          -1.9570    -1.2910     0.6020 c3         1 4RN       0.206100
      4 C4          -2.4220    -2.5900     1.2090 ca         1 4RN      -0.070300
      5 C5          -2.6350    -2.6800     2.5710 ca         1 4RN      -0.109500
      6 C6          -3.0610    -3.8720     3.1290 ca         1 4RN       0.035900
      7 C7          -3.2740    -4.9750     2.3220 ca         1 4RN      -0.114000
      8 N1           3.5010     1.1900    -0.8270 nu         1 4RN      -0.874200
      9 N2           3.6160     3.3250    -1.9890 na         1 4RN      -0.295300
     10 N3           7.0020     3.9190    -2.6170 nb         1 4RN      -0.659000
     11 N4           5.4890     2.2620    -1.5920 nc         1 4RN      -0.737700
     12 C8          -3.0620    -4.8850     0.9570 ca         1 4RN       0.035900
     13 Cl1         -3.3370    -6.2660    -0.0580 cl         1 4RN      -0.095400
     14 Cl          -3.3260    -3.9850     4.8410 cl         1 4RN      -0.095400
     15 C9          -2.6410    -3.6900     0.4010 ca         1 4RN      -0.109500
     16 N           -0.4890    -1.2550     0.5850 n7         1 4RN      -0.812200
     17 C            2.0410     0.0000     1.4420 c3         1 4RN      -0.090100
     18 C10          2.0400     1.2490    -0.7210 c3         1 4RN       0.236800
     19 C11          4.1880     2.2120    -1.4430 cd         1 4RN       0.689700
     20 C16          5.8350     3.4060    -2.2340 ca         1 4RN       0.622300
     21 C12          4.6410     4.1000    -2.5030 ca         1 4RN      -0.229500
     22 C15          7.0730     5.0700    -3.2510 ca         1 4RN       0.427200
     23 C14          5.9360     5.8030    -3.5450 ca         1 4RN      -0.266300
     24 C13          4.6940     5.3160    -3.1670 ca         1 4RN      -0.084000
     25 H1           1.8920    -0.8850    -0.5110 hc         1 4RN       0.059700
     26 H2          -0.3610     0.0890    -1.0170 h1         1 4RN       0.034700
     27 H3          -0.3610     0.8370     0.5860 h1         1 4RN       0.034700
     28 H4          -2.3320    -1.2110    -0.4110 h1         1 4RN       0.043200
     29 H5          -2.3320    -0.4630     1.1920 h1         1 4RN       0.043200
     30 H6          -2.4680    -1.8160     3.2030 ha         1 4RN       0.149000
     31 H7          -3.6080    -5.9090     2.7570 ha         1 4RN       0.159000
     32 H8           3.9960     0.3950    -0.4760 hn         1 4RN       0.477800
     33 H9           2.6370     3.4720    -2.1350 hn         1 4RN       0.297700
     34 H11         -2.4740    -3.6190    -0.6670 ha         1 4RN       0.149000
     35 H12         -0.1430    -2.0290     0.0530 hn         1 4RN       0.359800
     36 H14          1.2070     0.1320     2.1200 hc         1 4RN       0.046700
     37 H15          2.7470     0.8110     1.5750 hc         1 4RN       0.046700
     38 H16          2.5310    -0.9430     1.6510 hc         1 4RN       0.046700
     39 H17          1.7540     2.1310    -0.1620 h1         1 4RN       0.037700
     40 H18          1.6080     1.2940    -1.7130 h1         1 4RN       0.037700
     41 H19          8.0420     5.4530    -3.5470 h4         1 4RN       0.025100
     42 H20          6.0150     6.7490    -4.0670 ha         1 4RN       0.139000
     43 H21          3.7890     5.8700    -3.3850 ha         1 4RN       0.129000
@<TRIPOS>BOND
     1    13    12 1
     2    12    15 ar
     3    12     7 ar
     4    15     4 ar
     5     7     6 ar
     6     3     4 1
     7     3    16 1
     8     4     5 ar
     9    14     6 1
    10     6     5 ar
    11    16     2 1
    12     2     1 1
    13    17     1 1
    14     1    18 1
    15    18     8 1
    16     8    19 1
    17    19    11 2
    18    19     9 1
    19    11    20 1
    20     9    21 1
    21    20    21 ar
    22    20    10 ar
    23    21    24 ar
    24    10    22 ar
    25    24    23 ar
    26    22    23 ar
    27     1    25 1
    28     2    26 1
    29     2    27 1
    30     3    28 1
    31     3    29 1
    32     5    30 1
    33     7    31 1
    34     8    32 1
    35     9    33 1
    36    15    34 1
    37    16    35 1
    38    17    36 1
    39    17    37 1
    40    17    38 1
    41    18    39 1
    42    18    40 1
    43    22    41 1
    44    23    42 1
    45    24    43 1
@<TRIPOS>SUBSTRUCTURE
     1 4RN         1 TEMP              0 ****  ****    0 ROOT
