@<TRIPOS>MOLECULE
4RN
   43    45     1     0     0
SMALL
bcc


@<TRIPOS>ATOM
      1 C1           1.5310     0.0000     0.0000 c3         1 4RN      -0.059700
      2 C2           0.0000     0.0000     0.0000 c3         1 4RN       0.148800
      3 C3          -1.9570    -1.2910     0.6020 c3         1 4RN       0.203100
      4 C4          -2.4220    -2.5900     1.2090 ca         1 4RN      -0.077300
      5 C5          -2.6350    -2.6800     2.5710 ca         1 4RN      -0.086500
      6 C6          -3.0610    -3.8720     3.1290 ca         1 4RN      -0.027100
      7 C7          -3.2740    -4.9750     2.3220 ca         1 4RN      -0.096000
      8 N1           3.5010     1.1900    -0.8270 nu         1 4RN      -0.468200
      9 N2           3.6160     3.3250    -1.9890 na         1 4RN       0.219700
     10 N3           7.0020     3.9190    -2.6170 nb         1 4RN      -0.532000
     11 N4           5.4890     2.2620    -1.5920 nc         1 4RN      -0.667700
     12 C8          -3.0620    -4.8850     0.9570 ca         1 4RN      -0.027100
     13 Cl1         -3.3370    -6.2660    -0.0580 cl         1 4RN      -0.015400
     14 Cl          -3.3260    -3.9850     4.8410 cl         1 4RN      -0.015400
     15 C9          -2.6410    -3.6900     0.4010 ca         1 4RN      -0.086500
     16 N           -0.4890    -1.2550     0.5850 n7         1 4RN      -0.578200
     17 C            2.0410     0.0000     1.4420 c3         1 4RN      -0.005100
     18 C10          2.0400     1.2490    -0.7210 c3         1 4RN       0.162800
     19 C11          4.1880     2.2120    -1.4430 cd         1 4RN       0.347700
     20 C16          5.8350     3.4060    -2.2340 ca         1 4RN       0.542300
     21 C12          4.6410     4.1000    -2.5030 ca         1 4RN      -0.402500
     22 C15          7.0730     5.0700    -3.2510 ca         1 4RN       0.398200
     23 C14          5.9360     5.8030    -3.5450 ca         1 4RN      -0.236300
     24 C13          4.6940     5.3160    -3.1670 ca         1 4RN      -0.047000
     25 H1           1.8920    -0.8850    -0.5110 hc         1 4RN       0.034700
     26 H2          -0.3610     0.0890    -1.0170 h1         1 4RN       0.009200
     27 H3          -0.3610     0.8370     0.5860 h1         1 4RN       0.009200
     28 H4          -2.3320    -1.2110    -0.4110 h1         1 4RN       0.012700
     29 H5          -2.3320    -0.4630     1.1920 h1         1 4RN       0.012700
     30 H6          -2.4680    -1.8160     3.2030 ha         1 4RN       0.119000
     31 H7          -3.6080    -5.9090     2.7570 ha         1 4RN       0.126000
     32 H8           3.9960     0.3950    -0.4760 hn         1 4RN       0.321800
     33 H9           2.6370     3.4720    -2.1350 hn         1 4RN       0.128700
     34 H11         -2.4740    -3.6190    -0.6670 ha         1 4RN       0.119000
     35 H12         -0.1430    -2.0290     0.0530 hn         1 4RN       0.258800
     36 H14          1.2070     0.1320     2.1200 hc         1 4RN       0.015367
     37 H15          2.7470     0.8110     1.5750 hc         1 4RN       0.015367
     38 H16          2.5310    -0.9430     1.6510 hc         1 4RN       0.015367
     39 H17          1.7540     2.1310    -0.1620 h1         1 4RN       0.009200
     40 H18          1.6080     1.2940    -1.7130 h1         1 4RN       0.009200
     41 H19          8.0420     5.4530    -3.5470 h4         1 4RN      -0.021900
     42 H20          6.0150     6.7490    -4.0670 ha         1 4RN       0.112000
     43 H21          3.7890     5.8700    -3.3850 ha         1 4RN       0.100000
@<TRIPOS>BOND
     1     1     2 1   
     2     1    17 1   
     3     1    18 1   
     4     1    25 1   
     5     2    16 1   
     6     2    26 1   
     7     2    27 1   
     8     3     4 1   
     9     3    16 1   
    10     3    28 1   
    11     3    29 1   
    12     4     5 ar  
    13     4    15 ar  
    14     5     6 ar  
    15     5    30 1   
    16     6     7 ar  
    17     6    14 1   
    18     7    12 ar  
    19     7    31 1   
    20     8    18 1   
    21     8    19 1   
    22     8    32 1   
    23     9    19 1   
    24     9    21 1   
    25     9    33 1   
    26    10    20 ar  
    27    10    22 ar  
    28    11    19 2   
    29    11    20 1   
    30    12    13 1   
    31    12    15 ar  
    32    15    34 1   
    33    16    35 1   
    34    17    36 1   
    35    17    37 1   
    36    17    38 1   
    37    18    39 1   
    38    18    40 1   
    39    20    21 ar  
    40    21    24 ar  
    41    22    23 ar  
    42    22    41 1   
    43    23    24 ar  
    44    23    42 1   
    45    24    43 1   
@<TRIPOS>SUBSTRUCTURE
     1 4RN         1 TEMP              0 ****  ****    0 ROOT
