@<TRIPOS>MOLECULE
4RO
   40    42     1     0     0
SMALL
bcc


@<TRIPOS>ATOM
      1 C4           0.0000     0.0000     0.0000 ca         1 4RO      -0.084000
      2 C2           2.1350     0.0010    -1.3060 c3         1 4RO       0.206100
      3 C3           1.3820     0.0000     0.0000 ca         1 4RO      -0.081300
      4 C1           3.1130     1.4260    -3.0020 c3         1 4RO       0.097800
      5 C7           1.3830    -0.0000     2.3950 ca         1 4RO      -0.026600
      6 C8           2.0740     0.0000     1.1960 ca         1 4RO      -0.084000
      7 C11          5.9410     5.7350    -7.9100 ca         1 4RO       0.540300
      8 C15          6.1080     4.3690    -8.1970 ca         1 4RO      -0.401500
      9 C14          6.7740     3.9920    -9.3540 ca         1 4RO      -0.047000
     10 C12          7.0580     6.3160    -9.8460 ca         1 4RO       0.399200
     11 Cl1          2.2530    -0.0000     3.8980 cl         1 4RO      -0.013400
     12 C6           0.0000     0.0100     2.3960 ca         1 4RO      -0.093000
     13 C5          -0.6920     0.0050     1.1990 ca         1 4RO      -0.026600
     14 Cl          -2.4280     0.0190     1.1990 cl         1 4RO      -0.013400
     15 N            2.3790     1.3850    -1.7300 n7         1 4RO      -0.567200
     16 C            3.3480     2.8820    -3.4100 c3         1 4RO       0.375600
     17 F            2.1160     3.5270    -3.5610 f          1 4RO      -0.207800
     18 F1           4.0960     3.5280    -2.4200 f          1 4RO      -0.207800
     19 C9           4.1110     2.9230    -4.7350 c3         1 4RO       0.113800
     20 N1           4.3370     4.3160    -5.1250 nu         1 4RO      -0.459200
     21 C10          5.0090     4.6040    -6.2920 cc         1 4RO       0.343700
     22 N4           5.5090     3.6760    -7.1590 na         1 4RO       0.220700
     23 N2           5.2600     5.8120    -6.7390 nd         1 4RO      -0.652700
     24 C13          7.2550     4.9880   -10.1880 ca         1 4RO      -0.232300
     25 N3           6.4230     6.6530    -8.7450 nb         1 4RO      -0.528000
     26 H1          -0.5420    -0.0040    -0.9380 ha         1 4RO       0.119500
     27 H2           3.0820    -0.5090    -1.1770 h1         1 4RO       0.012700
     28 H3           1.5500    -0.5100    -2.0600 h1         1 4RO       0.012700
     29 H4           2.5340     0.9250    -3.7690 h1         1 4RO       0.030700
     30 H5           4.0660     0.9260    -2.8850 h1         1 4RO       0.030700
     31 H6           3.1570    -0.0000     1.1950 ha         1 4RO       0.119500
     32 H8           7.4340     7.0930   -10.5000 h4         1 4RO      -0.020900
     33 H9          -0.5410     0.0120     3.3350 ha         1 4RO       0.127000
     34 H10          1.5050     1.8610    -1.8330 hn         1 4RO       0.269800
     35 H12          3.5320     2.4220    -5.5010 h1         1 4RO       0.030200
     36 H13          5.0650     2.4220    -4.6170 h1         1 4RO       0.030200
     37 H14          4.0130     5.0590    -4.5380 hn         1 4RO       0.329800
     38 H15          5.3300     2.6920    -7.1340 hn         1 4RO       0.126700
     39 H17          7.7810     4.7310   -11.1000 ha         1 4RO       0.113000
     40 H7           6.9150     2.9460    -9.5980 ha         1 4RO       0.101000
@<TRIPOS>BOND
     1     1     3 ar  
     2     1    13 ar  
     3     1    26 1   
     4     2     3 1   
     5     2    15 1   
     6     2    27 1   
     7     2    28 1   
     8     3     6 ar  
     9     4    15 1   
    10     4    16 1   
    11     4    29 1   
    12     4    30 1   
    13     5     6 ar  
    14     5    11 1   
    15     5    12 ar  
    16     6    31 1   
    17     7     8 ar  
    18     7    23 1   
    19     7    25 ar  
    20     8     9 ar  
    21     8    22 1   
    22     9    24 ar  
    23     9    40 1   
    24    10    24 ar  
    25    10    25 ar  
    26    10    32 1   
    27    12    13 ar  
    28    12    33 1   
    29    13    14 1   
    30    15    34 1   
    31    16    17 1   
    32    16    18 1   
    33    16    19 1   
    34    19    20 1   
    35    19    35 1   
    36    19    36 1   
    37    20    21 1   
    38    20    37 1   
    39    21    22 1   
    40    21    23 2   
    41    22    38 1   
    42    24    39 1   
@<TRIPOS>SUBSTRUCTURE
     1 4RO         1 TEMP              0 ****  ****    0 ROOT
