@<TRIPOS>MOLECULE
4RP
   40    42     1     0     0
SMALL
bcc


@<TRIPOS>ATOM
      1 C1           0.0000     0.0000     0.0000 ca         1 4RP      -0.096000
      2 C2           1.3830     0.0000     0.0000 ca         1 4RP      -0.026600
      3 C3           2.0750     0.0000     1.1990 ca         1 4RP      -0.086500
      4 C4           1.3840     0.0000     2.3950 ca         1 4RP      -0.078300
      5 C5           2.1380     0.0010     3.7000 c3         1 4RP       0.204100
      6 C6           3.1160     1.4250     5.3960 c3         1 4RP       0.147800
      7 C7           3.3510     2.8810     5.8040 c3         1 4RP      -0.036400
      8 N1           4.3410     4.3160     7.5190 nu         1 4RP      -0.468200
      9 C8           4.1160     2.9230     7.1280 c3         1 4RP       0.161800
     10 C9           5.0150     4.6050     8.6850 cc         1 4RP       0.347700
     11 C10          6.1150     4.3690    10.5890 ca         1 4RP      -0.402500
     12 C11          6.7820     3.9920    11.7450 ca         1 4RP      -0.047000
     13 N2           5.5160     3.6770     9.5510 na         1 4RP       0.220700
     14 C12          7.2640     4.9890    12.5780 ca         1 4RP      -0.236300
     15 C13          7.0700     6.3160    12.2350 ca         1 4RP       0.398200
     16 C14          5.9520     5.7360    10.2990 ca         1 4RP       0.541300
     17 C15          0.0010    -0.0000     2.3960 ca         1 4RP      -0.086500
     18 N3           6.4350     6.6530    11.1330 nb         1 4RP      -0.532000
     19 Cl1          2.2510     0.0000    -1.5040 cl         1 4RP      -0.015900
     20 C           -0.6910     0.0040     1.1990 ca         1 4RP      -0.026600
     21 Cl          -2.4270     0.0040     1.2000 cl         1 4RP      -0.015900
     22 N            2.3810     1.3860     4.1240 n7         1 4RP      -0.580200
     23 N4           5.2750     5.8120     9.1250 nd         1 4RP      -0.666700
     24 H1          -0.5420     0.0020    -0.9380 ha         1 4RP       0.127000
     25 H2           3.1580    -0.0000     1.1990 ha         1 4RP       0.119500
     26 H3           1.5540    -0.5110     4.4550 h1         1 4RP       0.012700
     27 H4           3.0850    -0.5090     3.5700 h1         1 4RP       0.012700
     28 H5           2.5380     0.9240     6.1630 h1         1 4RP       0.007700
     29 H6           4.0700     0.9250     5.2780 h1         1 4RP       0.007700
     30 H7           2.3980     3.3820     5.9220 hc         1 4RP       0.030200
     31 H8           3.9300     3.3820     5.0370 hc         1 4RP       0.030200
     32 H9           4.0070     5.0590     6.9370 hn         1 4RP       0.318800
     33 H10          3.5370     2.4220     7.8950 h1         1 4RP       0.007700
     34 H11          5.0690     2.4220     7.0100 h1         1 4RP       0.007700
     35 H12          6.9210     2.9460    11.9910 ha         1 4RP       0.101000
     36 H13          5.3400     2.6920     9.5240 hn         1 4RP       0.128700
     37 H14          7.7900     4.7320    13.4900 ha         1 4RP       0.112000
     38 H15          7.4480     7.0930    12.8880 h4         1 4RP      -0.021900
     39 H16         -0.5400     0.0010     3.3350 ha         1 4RP       0.119500
     40 H17          1.5060     1.8610     4.2290 hn         1 4RP       0.258800
@<TRIPOS>BOND
     1     1     2 ar  
     2     1    20 ar  
     3     1    24 1   
     4     2     3 ar  
     5     2    19 1   
     6     3     4 ar  
     7     3    25 1   
     8     4     5 1   
     9     4    17 ar  
    10     5    22 1   
    11     5    26 1   
    12     5    27 1   
    13     6     7 1   
    14     6    22 1   
    15     6    28 1   
    16     6    29 1   
    17     7     9 1   
    18     7    30 1   
    19     7    31 1   
    20     8     9 1   
    21     8    10 1   
    22     8    32 1   
    23     9    33 1   
    24     9    34 1   
    25    10    13 1   
    26    10    23 2   
    27    11    12 ar  
    28    11    13 1   
    29    11    16 ar  
    30    12    14 ar  
    31    12    35 1   
    32    13    36 1   
    33    14    15 ar  
    34    14    37 1   
    35    15    18 ar  
    36    15    38 1   
    37    16    18 ar  
    38    16    23 1   
    39    17    20 ar  
    40    17    39 1   
    41    20    21 1   
    42    22    40 1   
@<TRIPOS>SUBSTRUCTURE
     1 4RP         1 TEMP              0 ****  ****    0 ROOT
