@<TRIPOS>MOLECULE
molecule
   40    42     1     0     0
SMALL
bcc


@<TRIPOS>ATOM
      1 C1           0.0000     0.0000     0.0000 ca         1 4RP      -0.114000
      2 C2           1.3830     0.0000     0.0000 ca         1 4RP       0.035900
      3 C3           2.0750     0.0000     1.1990 ca         1 4RP      -0.109000
      4 C4           1.3840     0.0000     2.3950 ca         1 4RP      -0.071300
      5 C5           2.1380     0.0010     3.7000 c3         1 4RP       0.206100
      6 C6           3.1160     1.4250     5.3960 c3         1 4RP       0.159800
      7 C7           3.3510     2.8810     5.8040 c3         1 4RP      -0.097400
      8 N1           4.3410     4.3160     7.5190 nu         1 4RP      -0.875200
      9 C8           4.1160     2.9230     7.1280 c3         1 4RP       0.233800
     10 C9           5.0150     4.6050     8.6850 cc         1 4RP       0.689700
     11 C10          6.1150     4.3690    10.5890 ca         1 4RP      -0.229500
     12 C11          6.7820     3.9920    11.7450 ca         1 4RP      -0.084000
     13 N2           5.5160     3.6770     9.5510 na         1 4RP      -0.294300
     14 C12          7.2640     4.9890    12.5780 ca         1 4RP      -0.266300
     15 C13          7.0700     6.3160    12.2350 ca         1 4RP       0.427200
     16 C14          5.9520     5.7360    10.2990 ca         1 4RP       0.622300
     17 C15          0.0010    -0.0000     2.3960 ca         1 4RP      -0.109000
     18 N3           6.4350     6.6530    11.1330 nb         1 4RP      -0.659000
     19 Cl1          2.2510     0.0000    -1.5040 cl         1 4RP      -0.095400
     20 C           -0.6910     0.0040     1.1990 ca         1 4RP       0.035900
     21 Cl          -2.4270     0.0040     1.2000 cl         1 4RP      -0.095400
     22 N            2.3810     1.3860     4.1240 n7         1 4RP      -0.813200
     23 N4           5.2750     5.8120     9.1250 nd         1 4RP      -0.736700
     24 H1          -0.5420     0.0020    -0.9380 ha         1 4RP       0.159000
     25 H2           3.1580    -0.0000     1.1990 ha         1 4RP       0.149500
     26 H3           1.5540    -0.5110     4.4550 h1         1 4RP       0.043700
     27 H4           3.0850    -0.5090     3.5700 h1         1 4RP       0.043700
     28 H5           2.5380     0.9240     6.1630 h1         1 4RP       0.034700
     29 H6           4.0700     0.9250     5.2780 h1         1 4RP       0.034700
     30 H7           2.3980     3.3820     5.9220 hc         1 4RP       0.062200
     31 H8           3.9300     3.3820     5.0370 hc         1 4RP       0.062200
     32 H9           4.0070     5.0590     6.9370 hn         1 4RP       0.476800
     33 H10          3.5370     2.4220     7.8950 h1         1 4RP       0.037200
     34 H11          5.0690     2.4220     7.0100 h1         1 4RP       0.037200
     35 H12          6.9210     2.9460    11.9910 ha         1 4RP       0.129000
     36 H13          5.3400     2.6920     9.5240 hn         1 4RP       0.297700
     37 H14          7.7900     4.7320    13.4900 ha         1 4RP       0.139000
     38 H15          7.4480     7.0930    12.8880 h4         1 4RP       0.025100
     39 H16         -0.5400     0.0010     3.3350 ha         1 4RP       0.149500
     40 H17          1.5060     1.8610     4.2290 hn         1 4RP       0.359800
@<TRIPOS>BOND
     1    14    15 ar
     2    14    12 ar
     3    15    18 ar
     4    12    11 ar
     5    18    16 ar
     6    11    16 ar
     7    11    13 1
     8    16    23 1
     9    13    10 1
    10    23    10 2
    11    10     8 1
    12     8     9 1
    13     9     7 1
    14     7     6 1
    15     6    22 1
    16    22     5 1
    17    17    20 ar
    18    17     4 ar
    19    20     1 ar
    20    20    21 1
    21     1     2 ar
    22     4     3 ar
    23     4     5 1
    24     3     2 ar
    25     2    19 1
    26     1    24 1
    27     3    25 1
    28     5    26 1
    29     5    27 1
    30     6    28 1
    31     6    29 1
    32     7    30 1
    33     7    31 1
    34     8    32 1
    35     9    33 1
    36     9    34 1
    37    12    35 1
    38    13    36 1
    39    14    37 1
    40    15    38 1
    41    17    39 1
    42    22    40 1
@<TRIPOS>SUBSTRUCTURE
     1 4RP         1 TEMP              0 ****  ****    0 ROOT
