@<TRIPOS>MOLECULE
molecule
   40    42     1     0     0
SMALL
bcc


@<TRIPOS>ATOM
      1 N1           0.0000     0.0000     0.0000 nu         1 4RQ      -0.872200
      2 N2          -4.7690     0.0120     1.0980 n7         1 4RQ      -0.813200
      3 C3           3.2650     0.0000     1.3840 ca         1 4RQ      -0.245500
      4 C4           1.3480    -0.0000     0.2800 cc         1 4RQ       0.696700
      5 C5          -0.9760    -0.0000     1.0930 c3         1 4RQ       0.232800
      6 C6          -2.3920     0.0060     0.5130 c3         1 4RQ      -0.097400
      7 C7          -3.4100     0.0060     1.6550 c3         1 4RQ       0.159800
      8 C10         -7.7910    -1.1750     1.2770 ca         1 4RQ      -0.109500
      9 C12         -9.6920     0.0310     0.4540 ca         1 4RQ      -0.114000
     10 C15          3.5120     0.0000     0.0000 ca         1 4RQ       0.655300
     11 C13         -9.0550     1.2260     0.7370 ca         1 4RQ       0.035900
     12 C11         -9.0600    -1.1690     0.7240 ca         1 4RQ       0.035900
     13 Cl          -9.8580    -2.6700     0.3690 cl         1 4RQ      -0.095400
     14 C14         -7.7840     1.2200     1.2840 ca         1 4RQ      -0.109500
     15 C9          -7.1560     0.0200     1.5590 ca         1 4RQ      -0.071300
     16 C8          -5.7770     0.0130     2.1680 c3         1 4RQ       0.206100
     17 N            1.8890     0.0010     1.5340 na         1 4RQ      -0.293300
     18 N3           2.3040    -0.0010    -0.6170 nd         1 4RQ      -0.735700
     19 N4           4.7650    -0.0010    -0.4530 nb         1 4RQ      -0.698000
     20 C            5.7940    -0.0010     0.3700 ca         1 4RQ       0.652500
     21 F            7.0470    -0.0000    -0.1350 f          1 4RQ      -0.219200
     22 C2           4.3340     0.0050     2.2680 ca         1 4RQ      -0.059000
     23 C1           5.6170     0.0000     1.7460 ca         1 4RQ      -0.292300
     24 H1          -0.3130    -0.0010    -0.9510 hn         1 4RQ       0.477800
     25 H2          -4.8910     0.8230     0.5240 hn         1 4RQ       0.359800
     26 H4          -0.8390    -0.8870     1.6990 h1         1 4RQ       0.038200
     27 H5          -0.8330     0.8820     1.7050 h1         1 4RQ       0.038200
     28 H6          -2.5350    -0.8770    -0.0990 hc         1 4RQ       0.063200
     29 H7          -2.5290     0.8920    -0.0940 hc         1 4RQ       0.063200
     30 H8          -3.2670     0.8890     2.2670 h1         1 4RQ       0.035200
     31 H9          -3.2730    -0.8800     2.2620 h1         1 4RQ       0.035200
     32 H10         -7.2970    -2.1150     1.4910 ha         1 4RQ       0.149500
     33 H11        -10.6850     0.0350     0.0210 ha         1 4RQ       0.159000
     34 H12         -7.2850     2.1560     1.5050 ha         1 4RQ       0.149500
     35 H13         -5.6500     0.8960     2.7830 h1         1 4RQ       0.043700
     36 H14         -5.6560    -0.8730     2.7790 h1         1 4RQ       0.043700
     37 H15          1.3900    -0.1420     2.3900 hn         1 4RQ       0.300700
     38 H17          4.1690     0.0060     3.3390 ha         1 4RQ       0.136000
     39 H18          6.4760     0.0000     2.4070 ha         1 4RQ       0.153000
     40 Cl1         -9.8460     2.7340     0.3990 cl         1 4RQ      -0.095400
@<TRIPOS>BOND
     1    21    20 1   
     2    23    20 ar  
     3    23    22 ar  
     4    20    19 ar  
     5    22     3 ar  
     6    19    10 ar  
     7     3    10 ar  
     8     3    17 1   
     9    10    18 1   
    10    17     4 1   
    11    18     4 2   
    12     4     1 1   
    13     1     5 1   
    14     5     6 1   
    15     6     7 1   
    16     7     2 1   
    17     2    16 1   
    18    40    11 1   
    19    13    12 1   
    20    11     9 ar  
    21    11    14 ar  
    22     9    12 ar  
    23    12     8 ar  
    24    14    15 ar  
    25     8    15 ar  
    26    15    16 1   
    27     1    24 1   
    28     2    25 1   
    29     5    26 1   
    30     5    27 1   
    31     6    28 1   
    32     6    29 1   
    33     7    30 1   
    34     7    31 1   
    35     8    32 1   
    36     9    33 1   
    37    14    34 1   
    38    16    35 1   
    39    16    36 1   
    40    17    37 1   
    41    22    38 1   
    42    23    39 1   
@<TRIPOS>SUBSTRUCTURE
     1 4RQ         1 TEMP              0 ****  ****    0 ROOT
