@<TRIPOS>MOLECULE
4RQ
   40    42     1     0     0
SMALL
bcc


@<TRIPOS>ATOM
      1 N1           0.0000     0.0000     0.0000 nu         1 4RQ      -0.463200
      2 N2          -4.7690     0.0120     1.0980 n7         1 4RQ      -0.580200
      3 C3           3.2650     0.0000     1.3840 ca         1 4RQ      -0.415500
      4 C4           1.3480    -0.0000     0.2800 cc         1 4RQ       0.353700
      5 C5          -0.9760    -0.0000     1.0930 c3         1 4RQ       0.160800
      6 C6          -2.3920     0.0060     0.5130 c3         1 4RQ      -0.036400
      7 C7          -3.4100     0.0060     1.6550 c3         1 4RQ       0.148800
      8 C10         -7.7910    -1.1750     1.2770 ca         1 4RQ      -0.086500
      9 C12         -9.6920     0.0310     0.4540 ca         1 4RQ      -0.095000
     10 C15          3.5120     0.0000     0.0000 ca         1 4RQ       0.564300
     11 C13         -9.0550     1.2260     0.7370 ca         1 4RQ      -0.026600
     12 C11         -9.0600    -1.1690     0.7240 ca         1 4RQ      -0.026600
     13 Cl          -9.8580    -2.6700     0.3690 cl         1 4RQ      -0.015400
     14 C14         -7.7840     1.2200     1.2840 ca         1 4RQ      -0.086500
     15 C9          -7.1560     0.0200     1.5590 ca         1 4RQ      -0.078300
     16 C8          -5.7770     0.0130     2.1680 c3         1 4RQ       0.204100
     17 N            1.8890     0.0010     1.5340 na         1 4RQ       0.223700
     18 N3           2.3040    -0.0010    -0.6170 nd         1 4RQ      -0.666700
     19 N4           4.7650    -0.0010    -0.4530 nb         1 4RQ      -0.541000
     20 C            5.7940    -0.0010     0.3700 ca         1 4RQ       0.557500
     21 F            7.0470    -0.0000    -0.1350 f          1 4RQ      -0.227200
     22 C2           4.3340     0.0050     2.2680 ca         1 4RQ      -0.022000
     23 C1           5.6170     0.0000     1.7460 ca         1 4RQ      -0.254300
     24 H1          -0.3130    -0.0010    -0.9510 hn         1 4RQ       0.319800
     25 H2          -4.8910     0.8230     0.5240 hn         1 4RQ       0.258800
     26 H4          -0.8390    -0.8870     1.6990 h1         1 4RQ       0.008700
     27 H5          -0.8330     0.8820     1.7050 h1         1 4RQ       0.008700
     28 H6          -2.5350    -0.8770    -0.0990 hc         1 4RQ       0.030700
     29 H7          -2.5290     0.8920    -0.0940 hc         1 4RQ       0.030700
     30 H8          -3.2670     0.8890     2.2670 h1         1 4RQ       0.008200
     31 H9          -3.2730    -0.8800     2.2620 h1         1 4RQ       0.008200
     32 H10         -7.2970    -2.1150     1.4910 ha         1 4RQ       0.119500
     33 H11        -10.6850     0.0350     0.0210 ha         1 4RQ       0.127000
     34 H12         -7.2850     2.1560     1.5050 ha         1 4RQ       0.119500
     35 H13         -5.6500     0.8960     2.7830 h1         1 4RQ       0.012700
     36 H14         -5.6560    -0.8730     2.7790 h1         1 4RQ       0.012700
     37 H15          1.3900    -0.1420     2.3900 hn         1 4RQ       0.130700
     38 H17          4.1690     0.0060     3.3390 ha         1 4RQ       0.105000
     39 H18          6.4760     0.0000     2.4070 ha         1 4RQ       0.127000
     40 Cl1         -9.8460     2.7340     0.3990 cl         1 4RQ      -0.015400
@<TRIPOS>BOND
     1     1     4 1   
     2     1     5 1   
     3     1    24 1   
     4     2     7 1   
     5     2    16 1   
     6     2    25 1   
     7     3    10 ar  
     8     3    17 1   
     9     3    22 ar  
    10     4    17 1   
    11     4    18 2   
    12     5     6 1   
    13     5    26 1   
    14     5    27 1   
    15     6     7 1   
    16     6    28 1   
    17     6    29 1   
    18     7    30 1   
    19     7    31 1   
    20     8    12 ar  
    21     8    15 ar  
    22     8    32 1   
    23     9    11 ar  
    24     9    12 ar  
    25     9    33 1   
    26    10    18 1   
    27    10    19 ar  
    28    11    14 ar  
    29    11    40 1   
    30    12    13 1   
    31    14    15 ar  
    32    14    34 1   
    33    15    16 1   
    34    16    35 1   
    35    16    36 1   
    36    17    37 1   
    37    19    20 ar  
    38    20    21 1   
    39    20    23 ar  
    40    22    23 ar  
    41    22    38 1   
    42    23    39 1   
@<TRIPOS>SUBSTRUCTURE
     1 4RQ         1 TEMP              0 ****  ****    0 ROOT
