@<TRIPOS>MOLECULE
molecule
   41    43     1     0     0
SMALL
bcc


@<TRIPOS>ATOM
      1 O3           0.0000     0.0000     0.0000 o          1 4RR      -0.609500
      2 C2           1.2220     0.0000     0.0000 c          1 4RR       0.703500
      3 C1           2.0960     0.0000     1.2300 c3         1 4RR      -0.169400
      4 N4           2.0650     0.0480    -1.1010 ns         1 4RR      -0.593900
      5 C5           3.4520     0.0930    -0.7320 c3         1 4RR       0.103000
      6 C6           3.4680    -0.4560     0.6960 c3         1 4RR      -0.037400
      7 C7           4.6630    -0.0690     1.5390 ca         1 4RR      -0.097300
      8 C8           4.5280     0.0650     2.9210 ca         1 4RR      -0.133000
      9 C9           5.6300     0.4210     3.6900 ca         1 4RR       0.095100
     10 C16          6.8670     0.6440     3.0930 ca         1 4RR       0.130100
     11 C19          7.0020     0.5100     1.7110 ca         1 4RR      -0.205000
     12 C20          5.9010     0.1530     0.9340 ca         1 4RR      -0.104000
     13 O17          7.9510     0.9920     3.8410 os         1 4RR      -0.310900
     14 C18          9.1790     1.2020     3.1460 c3         1 4RR       0.125700
     15 O10          5.4860     0.5500     5.0460 os         1 4RR      -0.321900
     16 C11          4.5510     1.5210     5.5010 c3         1 4RR       0.143100
     17 C12          5.2530     2.5060     6.4230 c3         1 4RR      -0.096400
     18 C13          5.3370     1.7810     7.7650 c3         1 4RR      -0.078900
     19 C14          4.2420     0.7140     7.7450 c3         1 4RR      -0.078900
     20 C15          3.5180     0.8760     6.4120 c3         1 4RR      -0.096400
     21 H181         9.9530     1.4730     3.8540 h1         1 4RR       0.041367
     22 H182         9.4630     0.2920     2.6310 h1         1 4RR       0.041367
     23 H183         9.0540     2.0000     2.4250 h1         1 4RR       0.041367
     24 H19          7.9630     0.6820     1.2410 ha         1 4RR       0.141000
     25 H20          6.0060     0.0490    -0.1390 ha         1 4RR       0.133000
     26 H8           3.5680    -0.1070     3.3930 ha         1 4RR       0.147000
     27 H11          4.0750     2.0340     4.6740 h1         1 4RR       0.046700
     28 H151         3.2220    -0.0910     6.0220 hc         1 4RR       0.053450
     29 H152         2.6580     1.5250     6.5260 hc         1 4RR       0.053450
     30 H141         4.6840    -0.2730     7.8100 hc         1 4RR       0.045450
     31 H142         3.5520     0.8740     8.5650 hc         1 4RR       0.045450
     32 H131         5.1600     2.4780     8.5750 hc         1 4RR       0.045450
     33 H132         6.3080     1.3140     7.8740 hc         1 4RR       0.045450
     34 H121         4.6680     3.4130     6.5210 hc         1 4RR       0.053450
     35 H122         6.2460     2.7270     6.0520 hc         1 4RR       0.053450
     36 H6           3.4490    -1.5370     0.6300 hc         1 4RR       0.070700
     37 H51          4.0390    -0.5390    -1.3880 h1         1 4RR       0.045200
     38 H52          3.8150     1.1140    -0.7490 h1         1 4RR       0.045200
     39 HN4          1.7420     0.3300    -2.0050 hn         1 4RR       0.326500
     40 H11A         1.7200    -0.7040     1.9630 hc         1 4RR       0.079700
     41 H12          2.1630     0.9970     1.6480 hc         1 4RR       0.079700
@<TRIPOS>BOND
     1     1     2 2   
     2     2     4 1   
     3     2     3 1   
     4     3     6 1   
     5     3    40 1   
     6     3    41 1   
     7     4     5 1   
     8     4    39 1   
     9     5     6 1   
    10     5    37 1   
    11     5    38 1   
    12     6     7 1   
    13     6    36 1   
    14     7    12 ar  
    15     7     8 ar  
    16     8     9 ar  
    17     8    26 1   
    18     9    10 ar  
    19     9    15 1   
    20    10    13 1   
    21    10    11 ar  
    22    11    12 ar  
    23    11    24 1   
    24    12    25 1   
    25    13    14 1   
    26    14    21 1   
    27    14    22 1   
    28    14    23 1   
    29    15    16 1   
    30    16    20 1   
    31    16    17 1   
    32    16    27 1   
    33    17    18 1   
    34    17    34 1   
    35    17    35 1   
    36    18    19 1   
    37    18    32 1   
    38    18    33 1   
    39    19    20 1   
    40    19    30 1   
    41    19    31 1   
    42    20    28 1   
    43    20    29 1   
@<TRIPOS>SUBSTRUCTURE
     1 4RR         1 TEMP              0 ****  ****    0 ROOT
