@<TRIPOS>MOLECULE
molecule
   56    57     1     0     0
SMALL
bcc


@<TRIPOS>ATOM
      1 C1           0.0000     0.0000     0.0000 c3         1 4RS       0.326900
      2 C2           1.5300     0.0000     0.0000 c3         1 4RS       0.122100
      3 C3           2.0330     0.0000     1.4470 c3         1 4RS       0.112100
      4 C4           1.4510     1.2140     2.1780 c3         1 4RS       0.110100
      5 O1          -0.4780    -1.1940     0.6240 os         1 4RS      -0.438600
      6 O2           2.0080    -1.1670    -0.6710 oh         1 4RS      -0.587800
      7 O3           3.4600     0.0720     1.4580 oh         1 4RS      -0.612800
      8 O4           1.8540     1.1840     3.5490 oh         1 4RS      -0.599800
      9 C5          -0.0760     1.1660     2.0940 c3         1 4RS       0.138100
     10 O5          -0.4760     1.1380     0.7210 os         1 4RS      -0.421600
     11 C6          -0.6640     2.4080     2.7690 c3         1 4RS       0.151400
     12 O6          -2.0890     2.3080     2.7940 oh         1 4RS      -0.603800
     13 C1P         -1.8830    -1.4050     0.4780 c3         1 4RS       0.326900
     14 C2P         -2.3230    -2.5580     1.3820 c3         1 4RS       0.123100
     15 O2P         -1.9760    -2.2630     2.7370 oh         1 4RS      -0.587800
     16 C3P         -1.6130    -3.8420     0.9410 c3         1 4RS       0.112100
     17 O3P         -2.0720    -4.9390     1.7320 oh         1 4RS      -0.610800
     18 C4P         -1.9290    -4.1060    -0.5350 c3         1 4RS       0.113100
     19 O4P         -1.2140    -5.2610    -0.9770 oh         1 4RS      -0.599800
     20 C5P         -1.5050    -2.8920    -1.3650 c3         1 4RS       0.133100
     21 O5P         -2.1780    -1.7270    -0.8830 os         1 4RS      -0.425600
     22 C6P         -1.8720    -3.1220    -2.8320 c3         1 4RS       0.159400
     23 O6P         -1.3640    -2.0260    -3.6370 os         1 4RS      -0.424900
     24 C01         -1.6050    -2.0760    -4.9570 c          1 4RS       0.631100
     25 O02         -2.2180    -3.0070    -5.4240 o          1 4RS      -0.553000
     26 C02         -1.1080    -0.9740    -5.8550 c3         1 4RS      -0.126400
     27 H1          -0.3590     0.0470    -1.0210 h2         1 4RS       0.100700
     28 H2           1.8900     0.8870    -0.5060 h1         1 4RS       0.059700
     29 H3           1.7080    -0.9080     1.9410 h1         1 4RS       0.080700
     30 H4           1.8100     2.1220     1.7100 h1         1 4RS       0.048700
     31 H5           2.6390    -0.9170    -1.3250 ho         1 4RS       0.409000
     32 H6           3.8100    -0.6900     1.8890 ho         1 4RS       0.415000
     33 H7           2.5550     1.8000     3.6840 ho         1 4RS       0.411000
     34 H8          -0.4360     0.2740     2.5910 h1         1 4RS       0.088700
     35 H9          -0.3730     3.2920     2.2150 h1         1 4RS       0.034200
     36 H10         -0.2890     2.4780     3.7830 h1         1 4RS       0.034200
     37 H11         -2.4480     3.0510     3.2510 ho         1 4RS       0.402000
     38 H12         -2.4180    -0.5050     0.7580 h2         1 4RS       0.105700
     39 H13         -3.3940    -2.6920     1.2990 h1         1 4RS       0.061700
     40 H14         -2.7320    -2.3820     3.2880 ho         1 4RS       0.410000
     41 H15         -0.5440    -3.7230     1.0640 h1         1 4RS       0.079700
     42 H16         -1.3450    -5.3190     2.1960 ho         1 4RS       0.416000
     43 H17         -2.9940    -4.2670    -0.6510 h1         1 4RS       0.051700
     44 H18         -1.8000    -5.9980    -1.0170 ho         1 4RS       0.414000
     45 H19         -0.4350    -2.7510    -1.2730 h1         1 4RS       0.086700
     46 H20         -1.4330    -4.0530    -3.1710 h1         1 4RS       0.064200
     47 H21         -2.9490    -3.1740    -2.9300 h1         1 4RS       0.064200
     48 H22         -1.5450    -0.0320    -5.5460 hc         1 4RS       0.071200
     49 H23         -0.0290    -0.9110    -5.7870 hc         1 4RS       0.071200
     50 C7          -1.5120    -1.2730    -7.3000 c3         1 4RS      -0.074400
     51 C8          -1.0090    -0.1520    -8.2130 c3         1 4RS      -0.094100
     52 H24         -2.5910    -1.3360    -7.3680 hc         1 4RS       0.058200
     53 H25         -1.0750    -2.2140    -7.6100 hc         1 4RS       0.058200
     54 H26          0.0710    -0.0890    -8.1450 hc         1 4RS       0.035033
     55 H27         -1.4450     0.7890    -7.9030 hc         1 4RS       0.035033
     56 H28         -1.2950    -0.3640    -9.2360 hc         1 4RS       0.035033
@<TRIPOS>BOND
     1     8     4 1   
     2     7     3 1   
     3     4     3 1   
     4     4     9 1   
     5     3     2 1   
     6    11     9 1   
     7    11    12 1   
     8     9    10 1   
     9     2     6 1   
    10     2     1 1   
    11    10     1 1   
    12    15    14 1   
    13     1     5 1   
    14     5    13 1   
    15    13    14 1   
    16    13    21 1   
    17    14    16 1   
    18    16    17 1   
    19    16    18 1   
    20    21    20 1   
    21    20    18 1   
    22    20    22 1   
    23    18    19 1   
    24    22    23 1   
    25    23    24 1   
    26    24    25 2   
    27    24    26 1   
    28     1    27 1   
    29     2    28 1   
    30     3    29 1   
    31     4    30 1   
    32     6    31 1   
    33     7    32 1   
    34     8    33 1   
    35     9    34 1   
    36    11    35 1   
    37    11    36 1   
    38    12    37 1   
    39    13    38 1   
    40    14    39 1   
    41    15    40 1   
    42    16    41 1   
    43    17    42 1   
    44    18    43 1   
    45    19    44 1   
    46    20    45 1   
    47    22    46 1   
    48    22    47 1   
    49    26    48 1   
    50    26    49 1   
    51    26    50 1   
    52    50    51 1   
    53    50    52 1   
    54    50    53 1   
    55    51    54 1   
    56    51    55 1   
    57    51    56 1   
@<TRIPOS>SUBSTRUCTURE
     1 4RS         1 TEMP              0 ****  ****    0 ROOT
