@<TRIPOS>MOLECULE
4RT
   57    62     1     0     0
SMALL
bcc


@<TRIPOS>ATOM
      1 N1           0.0000     0.0000     0.0000 n          1 4RT       0.108000
      2 C4           3.5850     0.0370    -1.1550 c3         1 4RT       0.003800
      3 C5           1.3780     0.0000     0.0000 cc         1 4RT      -0.243600
      4 C6          -0.6980     0.0190    -1.1520 c          1 4RT       0.572700
      5 C7           0.0200     0.0030    -2.4360 cc         1 4RT       0.116900
      6 C8          -0.4240    -0.0140     1.3980 c3         1 4RT       0.106800
      7 C13         -2.3890    -0.7660     2.6790 cx         1 4RT      -0.099700
      8 C20          5.3510    -3.6620    -5.9300 ca         1 4RT      -0.130000
      9 C21          4.3890    -3.9320    -6.8890 ca         1 4RT       0.114900
     10 C22          3.4110    -2.9920    -7.1700 ca         1 4RT      -0.078600
     11 F            4.4050    -5.1110    -7.5480 f          1 4RT      -0.121900
     12 C19          5.3300    -2.4570    -5.2510 ca         1 4RT      -0.069000
     13 Cl           2.2030    -3.3300    -8.3710 cl         1 4RT       0.009600
     14 C23          3.3960    -1.7860    -6.4940 ca         1 4RT      -0.047000
     15 C18          4.3540    -1.5210    -5.5330 ca         1 4RT      -0.131300
     16 N            3.5150    -0.3330    -3.5910 n          1 4RT      -0.148800
     17 C1           2.1970    -0.0600    -3.6560 c          1 4RT       0.658700
     18 O4           1.6670     0.1550    -4.7290 o          1 4RT      -0.665500
     19 C2           1.4040    -0.0270    -2.4090 cd         1 4RT      -0.160200
     20 O           -0.6520     0.0160    -3.6100 oh         1 4RT      -0.433100
     21 O1          -1.9160     0.0490    -1.1310 o          1 4RT      -0.684500
     22 C14         -1.3010    -1.2380     1.6960 cx         1 4RT      -0.205000
     23 O3          -2.0780    -3.4260     1.0210 oh         1 4RT      -0.597800
     24 C16         -1.3380    -1.7850     3.1250 cx         1 4RT      -0.043400
     25 C12         -2.1170     0.7280     2.9520 c3         1 4RT       0.004600
     26 C11         -1.3160     1.2020     1.7120 c3         1 4RT      -0.058400
     27 N2           0.7760    -0.0090     2.2260 n          1 4RT      -0.143800
     28 C9           1.8430     0.0000     1.4030 c          1 4RT       0.654700
     29 O2           3.0060     0.0070     1.7570 o          1 4RT      -0.650500
     30 C3           2.0780    -0.0030    -1.1680 cd         1 4RT      -0.038200
     31 C            4.1390    -0.7530    -2.3380 c3         1 4RT       0.056000
     32 H1           3.9460    -0.4000    -0.2320 hc         1 4RT       0.051700
     33 H2           3.9160     1.0660    -1.2250 hc         1 4RT       0.051700
     34 H3           1.5340     0.7220     4.0330 h1         1 4RT       0.030033
     35 H4          -0.1650     0.2300     4.0800 h1         1 4RT       0.030033
     36 H5           1.1110    -0.9950     4.0410 h1         1 4RT       0.030033
     37 H6          -3.3780    -1.1100     2.4020 hc         1 4RT       0.080700
     38 H7          -0.7680    -2.2930    -0.0980 h1         1 4RT       0.011200
     39 H8          -2.4380    -1.7110    -0.0650 h1         1 4RT       0.011200
     40 H9           5.3490     0.0630    -4.5170 h1         1 4RT       0.035700
     41 H10          3.9230     0.5620    -5.4380 h1         1 4RT       0.035700
     42 H11          6.1160    -4.3950    -5.7090 ha         1 4RT       0.122000
     43 H12          6.0830    -2.2460    -4.5010 ha         1 4RT       0.107000
     44 H13          2.6310    -1.0510    -6.7130 ha         1 4RT       0.146000
     45 H14         -1.1050     0.8370    -3.7040 ho         1 4RT       0.419000
     46 H15         -2.1840    -4.0260     0.3020 ho         1 4RT       0.397000
     47 H16         -1.6900    -2.8040     3.2270 hc         1 4RT       0.069200
     48 H17         -0.5730    -1.4050     3.7910 hc         1 4RT       0.069200
     49 H18         -3.0490     1.2740     3.0300 hc         1 4RT       0.027200
     50 H19         -1.5240     0.8460     3.8510 hc         1 4RT       0.027200
     51 H20         -0.7110     2.0670     1.9560 hc         1 4RT       0.046200
     52 H21         -1.9820     1.4110     0.8840 hc         1 4RT       0.046200
     53 H22          3.9440    -1.8070    -2.1820 h1         1 4RT       0.022700
     54 H23          5.2080    -0.5910    -2.4030 h1         1 4RT       0.022700
     55 C10          0.8170    -0.0130     3.6900 c3         1 4RT       0.082300
     56 C15         -1.6450    -2.1570     0.5230 c3         1 4RT       0.252400
     57 C17          4.3380    -0.2070    -4.7960 c3         1 4RT       0.117300
@<TRIPOS>BOND
     1     1     3 1   
     2     1     4 1   
     3     1     6 1   
     4     2    30 1   
     5     2    31 1   
     6     2    32 1   
     7     2    33 1   
     8     3    28 1   
     9     3    30 2   
    10     4     5 1   
    11     4    21 2   
    12     5    19 2   
    13     5    20 1   
    14     6    22 1   
    15     6    26 1   
    16     6    27 1   
    17     7    22 1   
    18     7    24 1   
    19     7    25 1   
    20     7    37 1   
    21     8     9 ar  
    22     8    12 ar  
    23     8    42 1   
    24     9    10 ar  
    25     9    11 1   
    26    10    13 1   
    27    10    14 ar  
    28    12    15 ar  
    29    12    43 1   
    30    14    15 ar  
    31    14    44 1   
    32    15    57 1   
    33    16    17 1   
    34    16    31 1   
    35    16    57 1   
    36    17    18 2   
    37    17    19 1   
    38    19    30 1   
    39    20    45 1   
    40    22    24 1   
    41    22    56 1   
    42    23    46 1   
    43    23    56 1   
    44    24    47 1   
    45    24    48 1   
    46    25    26 1   
    47    25    49 1   
    48    25    50 1   
    49    26    51 1   
    50    26    52 1   
    51    27    28 1   
    52    27    55 1   
    53    28    29 2   
    54    31    53 1   
    55    31    54 1   
    56    34    55 1   
    57    35    55 1   
    58    36    55 1   
    59    38    56 1   
    60    39    56 1   
    61    40    57 1   
    62    41    57 1   
@<TRIPOS>SUBSTRUCTURE
     1 4RT         1 TEMP              0 ****  ****    0 ROOT
