@<TRIPOS>MOLECULE
molecule
   57    62     1     0     0
SMALL
bcc


@<TRIPOS>ATOM
      1 N1           0.0000     0.0000     0.0000 n          1 4RT      -0.325000
      2 C4           3.5850     0.0370    -1.1550 c3         1 4RT      -0.053200
      3 C5           1.3780     0.0000     0.0000 cc         1 4RT      -0.066600
      4 C6          -0.6980     0.0190    -1.1520 c          1 4RT       0.671700
      5 C7           0.0200     0.0030    -2.4360 cc         1 4RT       0.083900
      6 C8          -0.4240    -0.0140     1.3980 c3         1 4RT       0.321800
      7 C13         -2.3890    -0.7660     2.6790 cx         1 4RT      -0.125700
      8 C20          5.3510    -3.6620    -5.9300 ca         1 4RT      -0.166000
      9 C21          4.3890    -3.9320    -6.8890 ca         1 4RT       0.145900
     10 C22          3.4110    -2.9920    -7.1700 ca         1 4RT      -0.017600
     11 F            4.4050    -5.1110    -7.5480 f          1 4RT      -0.127900
     12 C19          5.3300    -2.4570    -5.2510 ca         1 4RT      -0.095000
     13 Cl           2.2030    -3.3300    -8.3710 cl         1 4RT      -0.082400
     14 C23          3.3960    -1.7860    -6.4940 ca         1 4RT      -0.069000
     15 C18          4.3540    -1.5210    -5.5330 ca         1 4RT      -0.124300
     16 N            3.5150    -0.3330    -3.5910 n          1 4RT      -0.484800
     17 C1           2.1970    -0.0600    -3.6560 c          1 4RT       0.720700
     18 O4           1.6670     0.1550    -4.7290 o          1 4RT      -0.619500
     19 C2           1.4040    -0.0270    -2.4090 cd         1 4RT      -0.116200
     20 O           -0.6520     0.0160    -3.6100 oh         1 4RT      -0.452100
     21 O1          -1.9160     0.0490    -1.1310 o          1 4RT      -0.633500
     22 C14         -1.3010    -1.2380     1.6960 cx         1 4RT      -0.176000
     23 O3          -2.0780    -3.4260     1.0210 oh         1 4RT      -0.619800
     24 C16         -1.3380    -1.7850     3.1250 cx         1 4RT      -0.081400
     25 C12         -2.1170     0.7280     2.9520 c3         1 4RT      -0.059400
     26 C11         -1.3160     1.2020     1.7120 c3         1 4RT      -0.098400
     27 N2           0.7760    -0.0090     2.2260 n          1 4RT      -0.484800
     28 C9           1.8430     0.0000     1.4030 c          1 4RT       0.713700
     29 O2           3.0060     0.0070     1.7570 o          1 4RT      -0.609500
     30 C3           2.0780    -0.0030    -1.1680 cd         1 4RT      -0.069200
     31 C            4.1390    -0.7530    -2.3380 c3         1 4RT       0.107000
     32 H1           3.9460    -0.4000    -0.2320 hc         1 4RT       0.082200
     33 H2           3.9160     1.0660    -1.2250 hc         1 4RT       0.082200
     34 H3           1.5340     0.7220     4.0330 h1         1 4RT       0.057367
     35 H4          -0.1650     0.2300     4.0800 h1         1 4RT       0.057367
     36 H5           1.1110    -0.9950     4.0410 h1         1 4RT       0.057367
     37 H6          -3.3780    -1.1100     2.4020 hc         1 4RT       0.106700
     38 H7          -0.7680    -2.2930    -0.0980 h1         1 4RT       0.045200
     39 H8          -2.4380    -1.7110    -0.0650 h1         1 4RT       0.045200
     40 H9           5.3490     0.0630    -4.5170 h1         1 4RT       0.067200
     41 H10          3.9230     0.5620    -5.4380 h1         1 4RT       0.067200
     42 H11          6.1160    -4.3950    -5.7090 ha         1 4RT       0.151000
     43 H12          6.0830    -2.2460    -4.5010 ha         1 4RT       0.135000
     44 H13          2.6310    -1.0510    -6.7130 ha         1 4RT       0.174000
     45 H14         -1.1050     0.8370    -3.7040 ho         1 4RT       0.440000
     46 H15         -2.1840    -4.0260     0.3020 ho         1 4RT       0.410000
     47 H16         -1.6900    -2.8040     3.2270 hc         1 4RT       0.093200
     48 H17         -0.5730    -1.4050     3.7910 hc         1 4RT       0.093200
     49 H18         -3.0490     1.2740     3.0300 hc         1 4RT       0.056200
     50 H19         -1.5240     0.8460     3.8510 hc         1 4RT       0.056200
     51 H20         -0.7110     2.0670     1.9560 hc         1 4RT       0.075700
     52 H21         -1.9820     1.4110     0.8840 hc         1 4RT       0.075700
     53 H22          3.9440    -1.8070    -2.1820 h1         1 4RT       0.053200
     54 H23          5.2080    -0.5910    -2.4030 h1         1 4RT       0.053200
     55 C10          0.8170    -0.0130     3.6900 c3         1 4RT       0.116300
     56 C15         -1.6450    -2.1570     0.5230 c3         1 4RT       0.178400
     57 C17          4.3380    -0.2070    -4.7960 c3         1 4RT       0.161300
@<TRIPOS>BOND
     1    20     5 1   
     2    21     4 2   
     3     7    25 1   
     4     7    22 1   
     5     7    24 1   
     6    25    26 1   
     7    56    22 1   
     8    56    23 1   
     9     4     5 1   
    10     4     1 1   
    11     5    19 2   
    12    18    17 2   
    13    22    24 1   
    14    22     6 1   
    15    13    10 1   
    16     1     6 1   
    17     1     3 1   
    18    26     6 1   
    19    19    17 1   
    20    19    30 1   
    21    17    16 1   
    22     6    27 1   
    23    14    10 ar  
    24    14    15 ar  
    25    10     9 ar  
    26     3    30 2   
    27     3    28 1   
    28    30     2 1   
    29    16    57 1   
    30    16    31 1   
    31    57    15 1   
    32    27    28 1   
    33    27    55 1   
    34    15    12 ar  
    35     9    11 1   
    36     9     8 ar  
    37    28    29 2   
    38    31     2 1   
    39    12     8 ar  
    40     2    32 1   
    41     2    33 1   
    42    55    34 1   
    43    55    35 1   
    44    55    36 1   
    45     7    37 1   
    46    56    38 1   
    47    56    39 1   
    48    57    40 1   
    49    57    41 1   
    50     8    42 1   
    51    12    43 1   
    52    14    44 1   
    53    20    45 1   
    54    23    46 1   
    55    24    47 1   
    56    24    48 1   
    57    25    49 1   
    58    25    50 1   
    59    26    51 1   
    60    26    52 1   
    61    31    53 1   
    62    31    54 1   
@<TRIPOS>SUBSTRUCTURE
     1 4RT         1 TEMP              0 ****  ****    0 ROOT
