@<TRIPOS>MOLECULE
4RU
   23    24     1     0     0
SMALL
bcc


@<TRIPOS>ATOM
      1 N1           0.0000     0.0000     0.0000 nz         1 4RU       0.210600
      2 C4           2.0850    -0.0000    -1.2750 ca         1 4RU       0.129800
      3 C7           3.3300    -0.0030    -3.6990 ca         1 4RU       0.355600
      4 C8           3.9520    -0.0060    -4.9560 ca         1 4RU      -0.124300
      5 C10          6.0910     0.2200    -3.8940 ca         1 4RU      -0.049000
      6 C13          3.4820     0.1160    -1.2760 ca         1 4RU       0.129300
      7 C2           1.3480     0.0000     0.0000 c          1 4RU       0.271600
      8 O3           1.9550     0.0000     1.0530 o          1 4RU      -0.442100
      9 N5           1.4210    -0.1080    -2.4290 nb         1 4RU      -0.314000
     10 N6           2.0000    -0.1100    -3.5740 nb         1 4RU      -0.208000
     11 C9           5.3080     0.1050    -5.0390 ca         1 4RU      -0.043000
     12 C11          5.5200     0.2260    -2.6550 ca         1 4RU      -0.070000
     13 C12          4.1310     0.1150    -2.5370 ca         1 4RU      -0.170300
     14 N14          4.1940     0.2280    -0.1030 nv         1 4RU      -0.550200
     15 H1          -0.3340     0.0530     0.9420 hn         1 4RU       0.248133
     16 H2          -0.3340     0.7890    -0.5170 hn         1 4RU       0.248133
     17 H3           3.3580    -0.0950    -5.8570 ha         1 4RU       0.137000
     18 H4           7.1670     0.3070    -3.9880 ha         1 4RU       0.124000
     19 H5           5.7840     0.1020    -6.0120 ha         1 4RU       0.125000
     20 H6           6.1380     0.3160    -1.7700 ha         1 4RU       0.126000
     21 H7           4.5540    -0.5920     0.3430 hn         1 4RU       0.308300
     22 H8           4.3860     1.1320     0.2820 hn         1 4RU       0.308300
     23 H13         -0.3340    -0.8340    -0.4420 hn         1 4RU       0.248133
@<TRIPOS>BOND
     1     1     7 1   
     2     1    15 1   
     3     1    16 1   
     4     1    23 1   
     5     2     6 ar  
     6     2     7 1   
     7     2     9 ar  
     8     3     4 ar  
     9     3    10 ar  
    10     3    13 ar  
    11     4    11 ar  
    12     4    17 1   
    13     5    11 ar  
    14     5    12 ar  
    15     5    18 1   
    16     6    13 ar  
    17     6    14 1   
    18     7     8 2   
    19     9    10 ar  
    20    11    19 1   
    21    12    13 ar  
    22    12    20 1   
    23    14    21 1   
    24    14    22 1   
@<TRIPOS>SUBSTRUCTURE
     1 4RU         1 TEMP              0 ****  ****    0 ROOT
