@<TRIPOS>MOLECULE
molecule
   23    24     1     0     0
SMALL
bcc


@<TRIPOS>ATOM
      1 N1           0.0000     0.0000     0.0000 nz         1 4RU      -0.672400
      2 C4           2.0850    -0.0000    -1.2750 ca         1 4RU       0.167800
      3 C7           3.3300    -0.0030    -3.6990 ca         1 4RU       0.376600
      4 C8           3.9520    -0.0060    -4.9560 ca         1 4RU      -0.155300
      5 C10          6.0910     0.2200    -3.8940 ca         1 4RU      -0.089000
      6 C13          3.4820     0.1160    -1.2760 ca         1 4RU       0.242300
      7 C2           1.3480     0.0000     0.0000 c          1 4RU       0.427600
      8 O3           1.9550     0.0000     1.0530 o          1 4RU      -0.417100
      9 N5           1.4210    -0.1080    -2.4290 nb         1 4RU      -0.336000
     10 N6           2.0000    -0.1100    -3.5740 nb         1 4RU      -0.256000
     11 C9           5.3080     0.1050    -5.0390 ca         1 4RU      -0.075000
     12 C11          5.5200     0.2260    -2.6550 ca         1 4RU      -0.096000
     13 C12          4.1310     0.1150    -2.5370 ca         1 4RU      -0.164300
     14 N14          4.1940     0.2280    -0.1030 nv         1 4RU      -0.982200
     15 H1          -0.3340     0.0530     0.9420 hn         1 4RU       0.481133
     16 H2          -0.3340     0.7890    -0.5170 hn         1 4RU       0.481133
     17 H3           3.3580    -0.0950    -5.8570 ha         1 4RU       0.174000
     18 H4           7.1670     0.3070    -3.9880 ha         1 4RU       0.161000
     19 H5           5.7840     0.1020    -6.0120 ha         1 4RU       0.163000
     20 H6           6.1380     0.3160    -1.7700 ha         1 4RU       0.160000
     21 H7           4.5540    -0.5920     0.3430 hn         1 4RU       0.463800
     22 H8           4.3860     1.1320     0.2820 hn         1 4RU       0.463800
     23 H13         -0.3340    -0.8340    -0.4420 hn         1 4RU       0.481133
@<TRIPOS>BOND
     1    14     6 1   
     2    12     5 ar  
     3    12    13 ar  
     4     5    11 ar  
     5     8     7 2   
     6     6    13 ar  
     7     6     2 ar  
     8    13     3 ar  
     9     7     2 1   
    10     7     1 1   
    11    11     4 ar  
    12     2     9 ar  
    13     3     4 ar  
    14     3    10 ar  
    15     9    10 ar  
    16     1    15 1   
    17     1    16 1   
    18     4    17 1   
    19     5    18 1   
    20    11    19 1   
    21    12    20 1   
    22    14    21 1   
    23    14    22 1   
    24    23     1 1   
@<TRIPOS>SUBSTRUCTURE
     1 4RU         1 TEMP              0 ****  ****    0 ROOT
