@<TRIPOS>MOLECULE
molecule
   35    37     1     0     0
SMALL
bcc


@<TRIPOS>ATOM
      1 C4           0.0000     0.0000     0.0000 ca         1 4RV       0.445200
      2 C6          -0.0820    -0.0010     2.3020 ca         1 4RV       0.450200
      3 C7           1.3100    -0.0010     2.3870 cp         1 4RV      -0.202300
      4 C8           1.9840    -0.0020     3.7070 cp         1 4RV      -0.045300
      5 C10          2.4840    -1.0990     5.7950 ca         1 4RV      -0.088000
      6 C13          4.1750     2.1940     5.7610 ca         1 4RV       0.238300
      7 C15          4.2650     3.2540     4.8490 ca         1 4RV       0.160800
      8 C2           2.0600     0.0000     1.2060 ca         1 4RV      -0.011300
      9 C3           1.3830     0.0000     0.0000 ca         1 4RV      -0.253300
     10 N5          -0.6810    -0.0010     1.1290 nb         1 4RV      -0.683000
     11 C9           1.8570    -1.0890     4.5570 ca         1 4RV      -0.073000
     12 C11          3.2410    -0.0410     6.2080 ca         1 4RV      -0.100000
     13 C12          3.3980     1.0720     5.3750 ca         1 4RV      -0.166300
     14 N14          4.8150     2.2380     6.9810 nv         1 4RV      -0.961200
     15 N16          3.6340     3.1820     3.6750 nb         1 4RV      -0.338000
     16 N17          2.9240     2.1720     3.3200 nb         1 4RV      -0.251000
     17 C18          2.7680     1.1020     4.1080 ca         1 4RV       0.379600
     18 C19          5.0560     4.4500     5.1870 c          1 4RV       0.426600
     19 N20          5.0530     5.5160     4.3620 nz         1 4RV      -0.671400
     20 O21          5.7120     4.4760     6.2110 o          1 4RV      -0.425100
     21 H1          -0.5330    -0.0000    -0.9430 h4         1 4RV       0.036100
     22 H2          -0.6750     0.0040     3.2080 h4         1 4RV       0.028100
     23 H3           2.3710    -1.9600     6.4440 ha         1 4RV       0.161000
     24 H4           3.9040    -0.5220     2.1350 hc         1 4RV       0.050367
     25 H5           3.9280     1.0200     1.2690 hc         1 4RV       0.050367
     26 H6           3.9510    -0.5010     0.3670 hc         1 4RV       0.050367
     27 H7           1.9240    -0.1570    -0.9250 ha         1 4RV       0.150000
     28 H8           1.2620    -1.9410     4.2520 ha         1 4RV       0.168000
     29 H9           3.7240    -0.0650     7.1780 ha         1 4RV       0.157000
     30 H10          4.4470     2.8080     7.7170 hn         1 4RV       0.463300
     31 H11          5.6220     1.6700     7.1430 hn         1 4RV       0.463300
     32 H12          4.1120     5.8300     4.2260 hn         1 4RV       0.481133
     33 H13          5.5960     6.2530     4.7670 hn         1 4RV       0.481133
     34 C1           3.5660    -0.0010     1.2470 c3         1 4RV      -0.054800
     35 H203         5.4480     5.2560     3.4800 hn         1 4RV       0.481133
@<TRIPOS>BOND
     1     1    10 ar  
     2     1     9 ar  
     3    10     2 ar  
     4     9     8 ar  
     5     2     3 ar  
     6     8     3 ar  
     7     8    34 1   
     8     3     4 1   
     9    16    15 ar  
    10    16    17 ar  
    11    15     7 ar  
    12     4    17 ar  
    13     4    11 ar  
    14    17    13 ar  
    15    19    18 1   
    16    11     5 ar  
    17     7    18 1   
    18     7     6 ar  
    19    18    20 2   
    20    13     6 ar  
    21    13    12 ar  
    22     6    14 1   
    23     5    12 ar  
    24     1    21 1   
    25     2    22 1   
    26     5    23 1   
    27    34    24 1   
    28    34    25 1   
    29    34    26 1   
    30     9    27 1   
    31    11    28 1   
    32    12    29 1   
    33    14    30 1   
    34    14    31 1   
    35    19    32 1   
    36    19    33 1   
    37    35    19 1   
@<TRIPOS>SUBSTRUCTURE
     1 4RV         1 TEMP              0 ****  ****    0 ROOT
