@<TRIPOS>MOLECULE
4RW
   26    27     1     0     0
SMALL
bcc


@<TRIPOS>ATOM
      1 C7           0.0000     0.0000     0.0000 c3         1 4RW      -0.084700
      2 C6           1.0710     1.2800     2.3670 c2         1 4RW       0.146100
      3 C1          -2.0330    -1.0950     0.9550 c3         1 4RW      -0.023400
      4 C5           1.5340     0.0000     0.0000 c3         1 4RW       0.109700
      5 C4          -2.0310     1.3630     0.5110 c3         1 4RW      -0.009400
      6 C3          -0.5020    -1.1020     0.9350 c3         1 4RW      -0.048400
      7 C2          -2.5290     0.2640     1.4520 c3         1 4RW      -0.029400
      8 C8          -0.5030     1.3550     0.4810 c3         1 4RW       0.116500
      9 N9           1.4040     1.8240     3.5850 nz         1 4RW       0.198400
     10 N10          0.0360     1.7350     1.7670 n2         1 4RW      -0.357900
     11 S11          2.0930     0.0000     1.7250 ss         1 4RW      -0.246300
     12 H1          -0.3620    -0.1850    -1.0040 hc         1 4RW       0.078700
     13 H2          -2.4060    -1.2700    -0.0470 hc         1 4RW       0.033700
     14 H3          -2.3880    -1.8730     1.6200 hc         1 4RW       0.033700
     15 H4           1.8990    -0.8880    -0.5020 h1         1 4RW       0.075700
     16 H5           1.8990     0.8880    -0.5020 h1         1 4RW       0.075700
     17 H6          -2.4120     1.1810    -0.4870 hc         1 4RW       0.041200
     18 H7          -2.3790     2.3260     0.8660 hc         1 4RW       0.041200
     19 H8          -0.1290    -0.9220     1.9360 hc         1 4RW       0.035200
     20 H9          -0.1520    -2.0630     0.5800 hc         1 4RW       0.035200
     21 H10         -2.1470     0.4440     2.4500 hc         1 4RW       0.023200
     22 H11         -3.6120     0.2680     1.4690 hc         1 4RW       0.023200
     23 H12         -0.1840     2.0980    -0.2400 h1         1 4RW       0.070700
     24 H13          2.3870     2.0150     3.6080 hn         1 4RW       0.220467
     25 H14          1.1730     1.1780     4.3140 hn         1 4RW       0.220467
     26 H93          0.8960     2.6760     3.7200 hn         1 4RW       0.220467
@<TRIPOS>BOND
     1     1     4 1   
     2     1     6 1   
     3     1     8 1   
     4     1    12 1   
     5     2     9 1   
     6     2    10 2   
     7     2    11 1   
     8     3     6 1   
     9     3     7 1   
    10     3    13 1   
    11     3    14 1   
    12     4    11 1   
    13     4    15 1   
    14     4    16 1   
    15     5     7 1   
    16     5     8 1   
    17     5    17 1   
    18     5    18 1   
    19     6    19 1   
    20     6    20 1   
    21     7    21 1   
    22     7    22 1   
    23     8    10 1   
    24     8    23 1   
    25     9    24 1   
    26     9    25 1   
    27     9    26 1   
@<TRIPOS>SUBSTRUCTURE
     1 4RW         1 TEMP              0 ****  ****    0 ROOT
