@<TRIPOS>MOLECULE
molecule
   45    48     1     0     0
SMALL
bcc


@<TRIPOS>ATOM
      1 C7           0.0000     0.0000     0.0000 c3         1 4RX       0.127700
      2 C6           1.5300     0.0000     0.0000 c3         1 4RX      -0.100400
      3 C5           2.0320     0.0000     1.4440 c3         1 4RX      -0.095700
      4 C4           1.5300    -1.2590     2.1540 c3         1 4RX       0.121200
      5 C2           3.0710    -2.6080     0.8030 c2         1 4RX       0.471100
      6 C15         -4.5700     1.3570    -3.9180 ca         1 4RX      -0.126000
      7 C14         -3.9200     1.2690    -2.7040 ca         1 4RX      -0.030000
      8 C16         -3.9550     0.9020    -5.0700 ca         1 4RX      -0.089000
      9 C18         -2.0220     0.2640    -3.8070 ca         1 4RX      -0.155000
     10 C13         -2.6380     0.7220    -2.6410 ca         1 4RX      -0.062600
     11 C17         -2.6820     0.3620    -5.0160 ca         1 4RX       0.017400
     12 C11         -1.7100     0.4870    -1.6670 c          1 4RX       0.641700
     13 C8          -0.5160    -1.2430     0.7270 c3         1 4RX      -0.099400
     14 C9          -0.0000    -1.2500     2.1680 c3         1 4RX      -0.058400
     15 C21          4.0870    -0.1720     2.8870 c3         1 4RX       0.131400
     16 C23          2.0590    -1.2370     3.5970 c3         1 4RX       0.139400
     17 C20          3.5620     0.0030     1.4710 c3         1 4RX      -0.018600
     18 N3           2.0150    -2.4660     1.5080 n2         1 4RX      -0.558900
     19 N24          3.3690    -3.8690     0.3430 nz         1 4RX      -0.734600
     20 N10         -0.4870    -0.0060    -1.3820 ns         1 4RX      -0.563900
     21 O12         -2.4070     0.9360    -0.7780 o          1 4RX      -0.646100
     22 O22          3.4890    -1.2940     3.5320 os         1 4RX      -0.411600
     23 S1           4.1700    -1.3030     0.3790 ss         1 4RX      -0.200300
     24 Cl1         -1.9070    -0.1790    -6.4720 cl         1 4RX      -0.104400
     25 H1          -0.3580     0.8870     0.5090 h1         1 4RX       0.093700
     26 H2           1.8910    -0.8860    -0.5080 hc         1 4RX       0.058700
     27 H3           1.8910     0.8870    -0.5070 hc         1 4RX       0.058700
     28 H4           1.6600     0.8780     1.9570 hc         1 4RX       0.108700
     29 H7          -4.4700     0.9750    -6.0210 ha         1 4RX       0.155000
     30 H8          -1.0260    -0.1610    -3.7650 ha         1 4RX       0.128000
     31 H9          -0.1630    -2.1300     0.2160 hc         1 4RX       0.065700
     32 H10         -1.5990    -1.2310     0.7340 hc         1 4RX       0.065700
     33 H11         -0.3620    -2.1350     2.6770 hc         1 4RX       0.076700
     34 H12         -0.3510    -0.3620     2.6810 hc         1 4RX       0.076700
     35 H13          3.8660     0.7220     3.4570 h1         1 4RX       0.084700
     36 H14          5.1600    -0.3180     2.8490 h1         1 4RX       0.084700
     37 H15          1.6810    -2.0960     4.1390 h1         1 4RX       0.088200
     38 H16          1.7500    -0.3210     4.0870 h1         1 4RX       0.088200
     39 H17          3.9100     0.9560     1.0920 h1         1 4RX       0.128700
     40 H18          3.6180    -3.8210    -0.6250 hn         1 4RX       0.469800
     41 H19          2.5700    -4.4620     0.4530 hn         1 4RX       0.469800
     42 H20          0.1020    -0.3390    -2.1180 hn         1 4RX       0.314500
     43 H5          -5.5660     1.7800    -3.9680 ha         1 4RX       0.154000
     44 H243         4.1900    -4.2080     0.8060 hn         1 4RX       0.469800
     45 H6          -4.4020     1.6260    -1.8030 ha         1 4RX       0.165000
@<TRIPOS>BOND
     1    21    12 2   
     2    12    10 1   
     3    12    20 1   
     4     7     6 ar  
     5     7    10 ar  
     6    13    14 1   
     7    13     1 1   
     8    14     4 1   
     9     6     8 ar  
    10    10     9 ar  
    11     1    20 1   
    12     1     2 1   
    13     8    11 ar  
    14     9    11 ar  
    15    16     4 1   
    16    16    22 1   
    17     4     3 1   
    18     4    18 1   
    19     2     3 1   
    20     3    17 1   
    21    11    24 1   
    22    18     5 2   
    23    22    15 1   
    24    15    17 1   
    25    17    23 1   
    26     5    23 1   
    27     5    19 1   
    28     1    25 1   
    29     2    26 1   
    30     2    27 1   
    31     3    28 1   
    32     6    43 1   
    33     7    45 1   
    34     8    29 1   
    35     9    30 1   
    36    13    31 1   
    37    13    32 1   
    38    14    33 1   
    39    14    34 1   
    40    15    35 1   
    41    15    36 1   
    42    16    37 1   
    43    16    38 1   
    44    17    39 1   
    45    19    40 1   
    46    19    41 1   
    47    20    42 1   
    48    44    19 1   
@<TRIPOS>SUBSTRUCTURE
     1 4RX         1 TEMP              0 ****  ****    0 ROOT
