@<TRIPOS>MOLECULE
4RX
   45    48     1     0     0
SMALL
bcc


@<TRIPOS>ATOM
      1 C7           0.0000     0.0000     0.0000 c3         1 4RX       0.022700
      2 C6           1.5300     0.0000     0.0000 c3         1 4RX      -0.058400
      3 C5           2.0320     0.0000     1.4440 c3         1 4RX      -0.063700
      4 C4           1.5300    -1.2590     2.1540 c3         1 4RX       0.053200
      5 C2           3.0710    -2.6080     0.8030 c2         1 4RX       0.169100
      6 C15         -4.5700     1.3570    -3.9180 ca         1 4RX      -0.095000
      7 C14         -3.9200     1.2690    -2.7040 ca         1 4RX       0.003000
      8 C16         -3.9550     0.9020    -5.0700 ca         1 4RX      -0.066000
      9 C18         -2.0220     0.2640    -3.8070 ca         1 4RX      -0.154000
     10 C13         -2.6380     0.7220    -2.6410 ca         1 4RX      -0.049600
     11 C17         -2.6820     0.3620    -5.0160 ca         1 4RX      -0.042600
     12 C11         -1.7100     0.4870    -1.6670 c          1 4RX       0.547700
     13 C8          -0.5160    -1.2430     0.7270 c3         1 4RX      -0.049400
     14 C9          -0.0000    -1.2500     2.1680 c3         1 4RX      -0.000400
     15 C21          4.0870    -0.1720     2.8870 c3         1 4RX       0.209400
     16 C23          2.0590    -1.2370     3.5970 c3         1 4RX       0.214400
     17 C20          3.5620     0.0030     1.4710 c3         1 4RX       0.040400
     18 N3           2.0150    -2.4660     1.5080 n2         1 4RX      -0.348900
     19 N24          3.3690    -3.8690     0.3430 nz         1 4RX       0.194400
     20 N10         -0.4870    -0.0060    -1.3820 ns         1 4RX      -0.157900
     21 O12         -2.4070     0.9360    -0.7780 o          1 4RX      -0.681100
     22 O22          3.4890    -1.2940     3.5320 os         1 4RX      -0.401600
     23 S1           4.1700    -1.3030     0.3790 ss         1 4RX      -0.242300
     24 Cl1         -1.9070    -0.1790    -6.4720 cl         1 4RX      -0.020400
     25 H1          -0.3580     0.8870     0.5090 h1         1 4RX       0.071700
     26 H2           1.8910    -0.8860    -0.5080 hc         1 4RX       0.036700
     27 H3           1.8910     0.8870    -0.5070 hc         1 4RX       0.036700
     28 H4           1.6600     0.8780     1.9570 hc         1 4RX       0.082700
     29 H7          -4.4700     0.9750    -6.0210 ha         1 4RX       0.121000
     30 H8          -1.0260    -0.1610    -3.7650 ha         1 4RX       0.104000
     31 H9          -0.1630    -2.1300     0.2160 hc         1 4RX       0.035200
     32 H10         -1.5990    -1.2310     0.7340 hc         1 4RX       0.035200
     33 H11         -0.3620    -2.1350     2.6770 hc         1 4RX       0.044700
     34 H12         -0.3510    -0.3620     2.6810 hc         1 4RX       0.044700
     35 H13          3.8660     0.7220     3.4570 h1         1 4RX       0.044700
     36 H14          5.1600    -0.3180     2.8490 h1         1 4RX       0.044700
     37 H15          1.6810    -2.0960     4.1390 h1         1 4RX       0.045200
     38 H16          1.7500    -0.3210     4.0870 h1         1 4RX       0.045200
     39 H17          3.9100     0.9560     1.0920 h1         1 4RX       0.103700
     40 H18          3.6180    -3.8210    -0.6250 hn         1 4RX       0.221467
     41 H19          2.5700    -4.4620     0.4530 hn         1 4RX       0.221467
     42 H20          0.1020    -0.3390    -2.1180 hn         1 4RX       0.170500
     43 H5          -5.5660     1.7800    -3.9680 ha         1 4RX       0.118000
     44 H243         4.1900    -4.2080     0.8060 hn         1 4RX       0.221467
     45 H6          -4.4020     1.6260    -1.8030 ha         1 4RX       0.130000
@<TRIPOS>BOND
     1     1     2 1   
     2     1    13 1   
     3     1    20 1   
     4     1    25 1   
     5     2     3 1   
     6     2    26 1   
     7     2    27 1   
     8     3     4 1   
     9     3    17 1   
    10     3    28 1   
    11     4    14 1   
    12     4    16 1   
    13     4    18 1   
    14     5    18 2   
    15     5    19 1   
    16     5    23 1   
    17     6     7 ar  
    18     6     8 ar  
    19     6    43 1   
    20     7    10 ar  
    21     7    45 1   
    22     8    11 ar  
    23     8    29 1   
    24     9    10 ar  
    25     9    11 ar  
    26     9    30 1   
    27    10    12 1   
    28    11    24 1   
    29    12    20 1   
    30    12    21 2   
    31    13    14 1   
    32    13    31 1   
    33    13    32 1   
    34    14    33 1   
    35    14    34 1   
    36    15    17 1   
    37    15    22 1   
    38    15    35 1   
    39    15    36 1   
    40    16    22 1   
    41    16    37 1   
    42    16    38 1   
    43    17    23 1   
    44    17    39 1   
    45    19    40 1   
    46    19    41 1   
    47    19    44 1   
    48    20    42 1   
@<TRIPOS>SUBSTRUCTURE
     1 4RX         1 TEMP              0 ****  ****    0 ROOT
