@<TRIPOS>MOLECULE
4RY
   45    48     1     0     0
SMALL
bcc


@<TRIPOS>ATOM
      1 C7           0.0000     0.0000     0.0000 c2         1 4RY       0.147100
      2 O2           3.3610     1.3740     2.6430 os         1 4RY      -0.378600
      3 C1           2.8300     1.4100     1.2940 c3         1 4RY       0.228400
      4 C5           0.3050     0.6360     2.6280 c3         1 4RY       0.099700
      5 C4           1.5790    -0.2070     2.4810 c3         1 4RY      -0.122000
      6 C3           2.6480     0.3940     3.4170 c3         1 4RY       0.216400
      7 C19          3.0930    -8.7990     3.6370 ca         1 4RY      -0.083000
      8 C18          3.4770    -7.4890     3.4350 ca         1 4RY      -0.072000
      9 C20          1.7520    -9.1390     3.6340 ca         1 4RY      -0.100000
     10 C23          1.1570    -6.8550     3.2260 ca         1 4RY      -0.081000
     11 C17          2.5080    -6.5060     3.2280 ca         1 4RY      -0.126600
     12 C21          0.7860    -8.1680     3.4340 ca         1 4RY      -0.042600
     13 C15          3.1640    -4.7990     3.1920 c          1 4RY       0.608700
     14 C12          2.9430    -2.3940     1.1010 c3         1 4RY      -0.053400
     15 C11          3.3670    -0.9650     0.8700 c3         1 4RY      -0.004400
     16 C24          1.2900    -1.6560     2.7970 c3         1 4RY      -0.044400
     17 C13          2.5200    -2.5340     2.5690 c3         1 4RY       0.016700
     18 C10          2.2010     0.0000     1.0980 c3         1 4RY       0.045200
     19 N9           1.2820     0.0000     0.0000 n2         1 4RY      -0.337900
     20 N8          -0.6610    -0.0120    -1.2060 nz         1 4RY       0.203400
     21 N14          2.1890    -3.9310     2.8570 ns         1 4RY      -0.213900
     22 O16          4.3180    -4.4220     3.2560 o          1 4RY      -0.602100
     23 S6          -0.9480     0.0080     1.4830 ss         1 4RY      -0.243300
     24 Cl1         -0.6850    -8.7310     4.1650 cl         1 4RY      -0.005400
     25 H1           2.0710     2.1780     1.2060 h1         1 4RY       0.026200
     26 H2           3.6270     1.5710     0.5780 h1         1 4RY       0.026200
     27 H3           0.5260     1.6700     2.3920 h1         1 4RY       0.084200
     28 H4          -0.0630     0.5610     3.6440 h1         1 4RY       0.084200
     29 H5           3.3280    -0.3810     3.7490 h1         1 4RY       0.037200
     30 H6           2.1720     0.8690     4.2670 h1         1 4RY       0.037200
     31 H9           1.4570   -10.1690     3.7950 ha         1 4RY       0.126000
     32 H10          0.4000    -6.0960     3.0680 ha         1 4RY       0.099000
     33 H11          2.1070    -2.6350     0.4560 hc         1 4RY       0.033700
     34 H12          3.7730    -3.0580     0.8960 hc         1 4RY       0.033700
     35 H13          3.7180    -0.8600    -0.1500 hc         1 4RY       0.053200
     36 H14          4.1700    -0.7180     1.5540 hc         1 4RY       0.053200
     37 H15          0.4870    -2.0030     2.1590 hc         1 4RY       0.040700
     38 H16          0.9870    -1.7380     3.8330 hc         1 4RY       0.040700
     39 H17          3.3260    -2.2040     3.2130 h1         1 4RY       0.074700
     40 H18         -1.4660    -0.6040    -1.1400 hn         1 4RY       0.220800
     41 H19         -0.9490     0.9180    -1.4390 hn         1 4RY       0.220800
     42 H20          1.2630    -4.2650     2.6770 hn         1 4RY       0.186500
     43 H7           3.8440    -9.5640     3.7960 ha         1 4RY       0.116000
     44 H83         -0.0540    -0.3730    -1.9160 hn         1 4RY       0.220800
     45 H8           4.5270    -7.2250     3.4380 ha         1 4RY       0.126000
@<TRIPOS>BOND
     1     1    19 2   
     2     1    20 1   
     3     1    23 1   
     4     2     3 1   
     5     2     6 1   
     6     3    18 1   
     7     3    25 1   
     8     3    26 1   
     9     4     5 1   
    10     4    23 1   
    11     4    27 1   
    12     4    28 1   
    13     5     6 1   
    14     5    16 1   
    15     5    18 1   
    16     6    29 1   
    17     6    30 1   
    18     7     8 ar  
    19     7     9 ar  
    20     7    43 1   
    21     8    11 ar  
    22     8    45 1   
    23     9    12 ar  
    24     9    31 1   
    25    10    11 ar  
    26    10    12 ar  
    27    10    32 1   
    28    11    13 1   
    29    12    24 1   
    30    13    21 1   
    31    13    22 2   
    32    14    15 1   
    33    14    17 1   
    34    14    33 1   
    35    14    34 1   
    36    15    18 1   
    37    15    35 1   
    38    15    36 1   
    39    16    17 1   
    40    16    37 1   
    41    16    38 1   
    42    17    21 1   
    43    17    39 1   
    44    18    19 1   
    45    20    40 1   
    46    20    41 1   
    47    20    44 1   
    48    21    42 1   
@<TRIPOS>SUBSTRUCTURE
     1 4RY         1 TEMP              0 ****  ****    0 ROOT
