@<TRIPOS>MOLECULE
molecule
   40    42     1     0     0
SMALL
bcc


@<TRIPOS>ATOM
      1 O1           0.0000     0.0000     0.0000 o          1 4RZ      -0.594100
      2 C7           1.1570     0.0020    -2.4360 c3         1 4RZ       0.121700
      3 C6           0.7930     1.4390    -2.8150 c3         1 4RZ      -0.101400
      4 C1           3.2350     1.3070    -5.7890 c2         1 4RZ       0.455100
      5 N1           2.0380     1.6590    -5.5060 n2         1 4RZ      -0.569900
      6 C5           0.0210     1.4380    -4.1360 c3         1 4RZ      -0.062400
      7 C4           0.8910     0.8230    -5.2340 c3         1 4RZ       0.149500
      8 C3           1.2680    -0.6040    -4.8570 c3         1 4RZ      -0.107700
      9 C2           2.1600    -1.1970    -5.9560 c3         1 4RZ       0.009700
     10 N2           4.1590     2.2940    -6.0380 nz         1 4RZ      -0.732600
     11 S1           3.7700    -0.3670    -5.8780 ss         1 4RZ      -0.208300
     12 N3           1.8890     0.0020    -1.1680 ns         1 4RZ      -0.589900
     13 C8           1.2150     0.0000     0.0000 c          1 4RZ       0.680700
     14 C9           1.9540     0.0000     1.2800 ca         1 4RZ      -0.148600
     15 C10          1.2600    -0.0010     2.4910 ca         1 4RZ      -0.057000
     16 C11          1.9560    -0.0030     3.6820 ca         1 4RZ       0.020400
     17 Cl1          1.0950    -0.0050     5.1900 cl         1 4RZ      -0.079400
     18 C12          3.3410    -0.0030     3.6780 ca         1 4RZ      -0.090000
     19 C13          4.0350    -0.0020     2.4810 ca         1 4RZ      -0.126000
     20 C14          3.3500    -0.0060     1.2840 ca         1 4RZ      -0.112000
     21 C15          2.0340    -0.6060    -3.5320 c3         1 4RZ      -0.102400
     22 H1           0.2510    -0.5830    -2.3360 h1         1 4RZ       0.093700
     23 H2           1.6990     2.0220    -2.9270 hc         1 4RZ       0.063200
     24 H3           0.1740     1.8700    -2.0370 hc         1 4RZ       0.063200
     25 H4          -0.8840     0.8540    -4.0240 hc         1 4RZ       0.078700
     26 H5          -0.2310     2.4570    -4.4050 hc         1 4RZ       0.078700
     27 H6           0.2960     0.7780    -6.1380 h1         1 4RZ       0.104700
     28 H7           0.3700    -1.2020    -4.7580 hc         1 4RZ       0.111700
     29 H8           2.2890    -2.2600    -5.7870 h1         1 4RZ       0.107700
     30 H9           1.7070    -1.0270    -6.9250 h1         1 4RZ       0.107700
     31 H10          3.9570     3.0920    -5.4690 hn         1 4RZ       0.470133
     32 H11          5.0760     1.9550    -5.8240 hn         1 4RZ       0.470133
     33 H12          2.8900    -0.0120    -1.1680 hn         1 4RZ       0.315500
     34 H13          0.1790     0.0740     2.4950 ha         1 4RZ       0.174000
     35 H14          3.8840    -0.0020     4.6160 ha         1 4RZ       0.155000
     36 H15          5.1190    -0.0040     2.4840 ha         1 4RZ       0.143000
     37 H16          3.8940    -0.0040     0.3470 ha         1 4RZ       0.116000
     38 H17          2.2880    -1.6250    -3.2650 hc         1 4RZ       0.059200
     39 H18          2.9370    -0.0180    -3.6370 hc         1 4RZ       0.059200
     40 H23          4.1100     2.5610    -7.0020 hn         1 4RZ       0.470133
@<TRIPOS>BOND
     1     1    13 2
     2    20    19 ar
     3    20    14 ar
     4    13    14 1
     5    13    12 1
     6    19    18 ar
     7     6     3 1
     8     6     7 1
     9    14    15 ar
    10     3     2 1
    11     2    12 1
    12     2    21 1
    13    18    16 ar
    14    15    16 ar
    15     7     8 1
    16     7     5 1
    17    21     8 1
    18     8     9 1
    19    16    17 1
    20     5     4 2
    21     9    11 1
    22     4    11 1
    23     4    10 1
    24     2    22 1
    25     3    23 1
    26     3    24 1
    27     6    25 1
    28     6    26 1
    29     7    27 1
    30     8    28 1
    31     9    29 1
    32     9    30 1
    33    10    31 1
    34    10    32 1
    35    12    33 1
    36    15    34 1
    37    18    35 1
    38    19    36 1
    39    20    37 1
    40    21    38 1
    41    21    39 1
    42    40    10 1
@<TRIPOS>SUBSTRUCTURE
     1 4RZ         1 TEMP              0 ****  ****    0 ROOT
