@<TRIPOS>MOLECULE
molecule
   54    57     1     0     0
SMALL
bcc


@<TRIPOS>ATOM
      1 C01          0.0000     0.0000     0.0000 ca         1 4S1       0.803200
      2 N02          1.3270     0.0000     0.0000 nb         1 4S1      -0.851000
      3 C03          2.0050     0.0000     1.1390 ca         1 4S1       0.990900
      4 N04          1.3980     0.0010     2.3180 nb         1 4S1      -0.840000
      5 C05          0.0780     0.0010     2.4060 ca         1 4S1       0.552200
      6 C06         -0.6810    -0.0000     1.2350 ca         1 4S1      -0.511500
      7 N07         -0.7030     0.0040    -1.1890 nu         1 4S1      -0.887900
      8 N08          3.3860    -0.0000     1.0980 nu         1 4S1      -0.888900
      9 C09         -2.1560     0.0000     1.2870 cc         1 4S1       0.541800
     10 C10          0.0180     0.0090    -2.4650 c3         1 4S1       0.239500
     11 C11          0.3660    -1.4350    -2.9050 c3         1 4S1       0.121100
     12 C12          0.5300    -1.3350    -4.4360 c3         1 4S1       0.117100
     13 C13         -0.2740    -0.1020    -4.8840 c3         1 4S1      -0.087700
     14 C14         -0.9000     0.5050    -3.6120 c3         1 4S1      -0.081400
     15 O15          1.5860    -1.8620    -2.2970 oh         1 4S1      -0.561800
     16 O16          1.9100    -1.1680    -4.7690 oh         1 4S1      -0.576800
     17 C17         -1.3750    -0.5210    -5.8620 c3         1 4S1       0.144400
     18 O18         -2.0380     0.6420    -6.3610 oh         1 4S1      -0.606800
     19 C19          4.1560     0.0020     2.3430 c3         1 4S1       0.244800
     20 C20          5.6510     0.0010     2.0180 c3         1 4S1      -0.105400
     21 C21          6.4570     0.0020     3.3190 c3         1 4S1      -0.088100
     22 S22         -3.1080    -0.0000     2.7660 ss         1 4S1      -0.143100
     23 C23         -4.5960     0.0000     1.8230 ca         1 4S1      -0.054100
     24 C24         -4.2600     0.0000     0.4640 ca         1 4S1       0.138400
     25 N25         -2.9300     0.0060     0.2540 nd         1 4S1      -0.643100
     26 C26         -5.9330    -0.0050     2.2160 ca         1 4S1      -0.081000
     27 C27         -6.9340    -0.0100     1.2710 ca         1 4S1      -0.128000
     28 C28         -6.6130    -0.0100    -0.0780 ca         1 4S1      -0.121000
     29 C29         -5.3030     0.0010    -0.4860 ca         1 4S1      -0.089000
     30 H1          -0.4070     0.0010     3.3750 h4         1 4S1       0.028100
     31 H2          -1.7030     0.0450    -1.1800 hn         1 4S1       0.490800
     32 H3           3.8600     0.0220     0.2160 hn         1 4S1       0.462800
     33 H4           0.9130     0.6150    -2.4050 h1         1 4S1       0.105700
     34 H5          -0.4450    -2.1100    -2.6570 h1         1 4S1       0.042700
     35 H6           0.1340    -2.2260    -4.9090 h1         1 4S1       0.027700
     36 H7           0.3870     0.6200    -5.3500 hc         1 4S1       0.090700
     37 H8          -0.8880     1.5870    -3.6640 hc         1 4S1       0.060200
     38 H9          -1.9090     0.1360    -3.4740 hc         1 4S1       0.060200
     39 H10          1.5960    -2.8030    -2.2380 ho         1 4S1       0.390000
     40 H11          2.1720    -1.8440    -5.3720 ho         1 4S1       0.396000
     41 H12         -2.0900    -1.1540    -5.3510 h1         1 4S1       0.020200
     42 H13         -0.9350    -1.0680    -6.6880 h1         1 4S1       0.020200
     43 H14         -2.5540     0.4100    -7.1150 ho         1 4S1       0.403000
     44 H15          3.9120    -0.8820     2.9200 h1         1 4S1       0.052200
     45 H16          3.9120     0.8870     2.9180 h1         1 4S1       0.052200
     46 H17          5.8960     0.8860     1.4420 hc         1 4S1       0.046700
     47 H18          5.8950    -0.8830     1.4420 hc         1 4S1       0.046700
     48 H19          7.5150     0.0020     3.0890 hc         1 4S1       0.037367
     49 H20          6.2130    -0.8830     3.8950 hc         1 4S1       0.037367
     50 H21          6.2120     0.8860     3.8950 hc         1 4S1       0.037367
     51 H22         -6.1850    -0.0050     3.2700 ha         1 4S1       0.136000
     52 H23         -7.9720    -0.0190     1.5820 ha         1 4S1       0.136000
     53 H24         -7.4050    -0.0150    -0.8180 ha         1 4S1       0.135000
     54 H25         -5.0690     0.0010    -1.5440 ha         1 4S1       0.141000
@<TRIPOS>BOND
     1    27    28 ar
     2    27    26 ar
     3    28    29 ar
     4    26    23 ar
     5    29    24 ar
     6    23    24 ar
     7    23    22 1
     8    24    25 1
     9    22     9 1
    10    25     9 2
    11     9     6 1
    12    18    17 1
    13     6     5 ar
    14     6     1 ar
    15    17    13 1
    16     5     4 ar
    17     7     1 1
    18     7    10 1
    19     1     2 ar
    20    14    13 1
    21    14    10 1
    22     4     3 ar
    23    13    12 1
    24    10    11 1
    25     2     3 ar
    26     3     8 1
    27    12    11 1
    28    12    16 1
    29    11    15 1
    30     8    19 1
    31    19    20 1
    32    20    21 1
    33     5    30 1
    34     7    31 1
    35     8    32 1
    36    10    33 1
    37    11    34 1
    38    12    35 1
    39    13    36 1
    40    14    37 1
    41    14    38 1
    42    15    39 1
    43    16    40 1
    44    17    41 1
    45    17    42 1
    46    18    43 1
    47    19    44 1
    48    19    45 1
    49    20    46 1
    50    20    47 1
    51    21    48 1
    52    21    49 1
    53    21    50 1
    54    26    51 1
    55    27    52 1
    56    28    53 1
    57    29    54 1
@<TRIPOS>SUBSTRUCTURE
     1 4S1         1 TEMP              0 ****  ****    0 ROOT
