@<TRIPOS>MOLECULE
4S1
   54    57     1     0     0
SMALL
bcc


@<TRIPOS>ATOM
      1 C01          0.0000     0.0000     0.0000 ca         1 4S1       0.629200
      2 N02          1.3270     0.0000     0.0000 nb         1 4S1      -0.757000
      3 C03          2.0050     0.0000     1.1390 ca         1 4S1       0.771900
      4 N04          1.3980     0.0010     2.3180 nb         1 4S1      -0.757000
      5 C05          0.0780     0.0010     2.4060 ca         1 4S1       0.556200
      6 C06         -0.6810    -0.0000     1.2350 ca         1 4S1      -0.529500
      7 N07         -0.7030     0.0040    -1.1890 nu         1 4S1      -0.504900
      8 N08          3.3860    -0.0000     1.0980 nu         1 4S1      -0.472900
      9 C09         -2.1560     0.0000     1.2870 cc         1 4S1       0.537800
     10 C10          0.0180     0.0090    -2.4650 c3         1 4S1       0.124500
     11 C11          0.3660    -1.4350    -2.9050 c3         1 4S1       0.159100
     12 C12          0.5300    -1.3350    -4.4360 c3         1 4S1       0.162100
     13 C13         -0.2740    -0.1020    -4.8840 c3         1 4S1      -0.080700
     14 C14         -0.9000     0.5050    -3.6120 c3         1 4S1      -0.021400
     15 O15          1.5860    -1.8620    -2.2970 oh         1 4S1      -0.541800
     16 O16          1.9100    -1.1680    -4.7690 oh         1 4S1      -0.555800
     17 C17         -1.3750    -0.5210    -5.8620 c3         1 4S1       0.230400
     18 O18         -2.0380     0.6420    -6.3610 oh         1 4S1      -0.589800
     19 C19          4.1560     0.0020     2.3430 c3         1 4S1       0.160800
     20 C20          5.6510     0.0010     2.0180 c3         1 4S1      -0.041400
     21 C21          6.4570     0.0020     3.3190 c3         1 4S1       0.012900
     22 S22         -3.1080    -0.0000     2.7660 ss         1 4S1      -0.224100
     23 C23         -4.5960     0.0000     1.8230 ca         1 4S1      -0.025100
     24 C24         -4.2600     0.0000     0.4640 ca         1 4S1       0.089400
     25 N25         -2.9300     0.0060     0.2540 nd         1 4S1      -0.518100
     26 C26         -5.9330    -0.0050     2.2160 ca         1 4S1      -0.040000
     27 C27         -6.9340    -0.0100     1.2710 ca         1 4S1      -0.102000
     28 C28         -6.6130    -0.0100    -0.0780 ca         1 4S1      -0.092000
     29 C29         -5.3030     0.0010    -0.4860 ca         1 4S1      -0.061000
     30 H1          -0.4070     0.0010     3.3750 h4         1 4S1      -0.015900
     31 H2          -1.7030     0.0450    -1.1800 hn         1 4S1       0.349800
     32 H3           3.8600     0.0220     0.2160 hn         1 4S1       0.305800
     33 H4           0.9130     0.6150    -2.4050 h1         1 4S1       0.077700
     34 H5          -0.4450    -2.1100    -2.6570 h1         1 4S1       0.007700
     35 H6           0.1340    -2.2260    -4.9090 h1         1 4S1      -0.003300
     36 H7           0.3870     0.6200    -5.3500 hc         1 4S1       0.060700
     37 H8          -0.8880     1.5870    -3.6640 hc         1 4S1       0.028200
     38 H9          -1.9090     0.1360    -3.4740 hc         1 4S1       0.028200
     39 H10          1.5960    -2.8030    -2.2380 ho         1 4S1       0.374000
     40 H11          2.1720    -1.8440    -5.3720 ho         1 4S1       0.381000
     41 H12         -2.0900    -1.1540    -5.3510 h1         1 4S1      -0.015300
     42 H13         -0.9350    -1.0680    -6.6880 h1         1 4S1      -0.015300
     43 H14         -2.5540     0.4100    -7.1150 ho         1 4S1       0.389000
     44 H15          3.9120    -0.8820     2.9200 h1         1 4S1       0.026200
     45 H16          3.9120     0.8870     2.9180 h1         1 4S1       0.026200
     46 H17          5.8960     0.8860     1.4420 hc         1 4S1       0.015700
     47 H18          5.8950    -0.8830     1.4420 hc         1 4S1       0.015700
     48 H19          7.5150     0.0020     3.0890 hc         1 4S1       0.003033
     49 H20          6.2130    -0.8830     3.8950 hc         1 4S1       0.003033
     50 H21          6.2120     0.8860     3.8950 hc         1 4S1       0.003033
     51 H22         -6.1850    -0.0050     3.2700 ha         1 4S1       0.111000
     52 H23         -7.9720    -0.0190     1.5820 ha         1 4S1       0.108000
     53 H24         -7.4050    -0.0150    -0.8180 ha         1 4S1       0.105000
     54 H25         -5.0690     0.0010    -1.5440 ha         1 4S1       0.110000
@<TRIPOS>BOND
     1     1     2 ar  
     2     1     6 ar  
     3     1     7 1   
     4     2     3 ar  
     5     3     4 ar  
     6     3     8 1   
     7     4     5 ar  
     8     5     6 ar  
     9     5    30 1   
    10     6     9 1   
    11     7    10 1   
    12     7    31 1   
    13     8    19 1   
    14     8    32 1   
    15     9    22 1   
    16     9    25 2   
    17    10    11 1   
    18    10    14 1   
    19    10    33 1   
    20    11    12 1   
    21    11    15 1   
    22    11    34 1   
    23    12    13 1   
    24    12    16 1   
    25    12    35 1   
    26    13    14 1   
    27    13    17 1   
    28    13    36 1   
    29    14    37 1   
    30    14    38 1   
    31    15    39 1   
    32    16    40 1   
    33    17    18 1   
    34    17    41 1   
    35    17    42 1   
    36    18    43 1   
    37    19    20 1   
    38    19    44 1   
    39    19    45 1   
    40    20    21 1   
    41    20    46 1   
    42    20    47 1   
    43    21    48 1   
    44    21    49 1   
    45    21    50 1   
    46    22    23 1   
    47    23    24 ar  
    48    23    26 ar  
    49    24    25 1   
    50    24    29 ar  
    51    26    27 ar  
    52    26    51 1   
    53    27    28 ar  
    54    27    52 1   
    55    28    29 ar  
    56    28    53 1   
    57    29    54 1   
@<TRIPOS>SUBSTRUCTURE
     1 4S1         1 TEMP              0 ****  ****    0 ROOT
