@<TRIPOS>MOLECULE
molecule
   53    57     1     0     0
SMALL
bcc


@<TRIPOS>ATOM
      1 C01          0.0000     0.0000     0.0000 cc         1 4S2       0.531600
      2 N02          1.3350     0.0000     0.0000 nc         1 4S2      -0.757300
      3 C03          2.0210     0.0000     1.1240 cd         1 4S2       0.770800
      4 N04          1.4070     0.0000     2.3390 ns         1 4S2      -0.486400
      5 C05          0.0590     0.0000     2.4210 c          1 4S2       0.737700
      6 C06         -0.6920     0.0000     1.2230 cd         1 4S2      -0.482800
      7 N07         -0.6930     0.0050    -1.1880 nu         1 4S2      -0.757000
      8 N08          3.3880    -0.0010     1.0700 nu         1 4S2      -0.829200
      9 O09         -0.4970     0.0020     3.5060 o          1 4S2      -0.653500
     10 C10         -2.1620     0.0010     1.2570 cd         1 4S2       0.562500
     11 C11          0.0290     0.1120    -2.4580 c3         1 4S2       0.232500
     12 C12          0.4780    -1.2860    -2.9530 c3         1 4S2       0.123100
     13 C13          0.6410    -1.1130    -4.4770 c3         1 4S2       0.117100
     14 C14         -0.2430     0.0800    -4.8820 c3         1 4S2      -0.091700
     15 C15         -0.9150     0.5890    -3.5890 c3         1 4S2      -0.080400
     16 O16          1.7220    -1.6540    -2.3550 oh         1 4S2      -0.570800
     17 O17          2.0070    -0.8380    -4.7940 oh         1 4S2      -0.580800
     18 C18         -1.3090    -0.3740    -5.8810 c3         1 4S2       0.145400
     19 O19         -2.0480     0.7620    -6.3370 oh         1 4S2      -0.605800
     20 C20          4.0680    -0.0020    -0.2280 cx         1 4S2       0.187500
     21 C21          5.4850    -0.5760    -0.2810 cx         1 4S2      -0.156400
     22 C22          5.2680     0.9340    -0.3970 cx         1 4S2      -0.156400
     23 S23         -3.1340     0.1570     2.7130 ss         1 4S2      -0.043100
     24 C24         -4.6100     0.0500     1.7580 ca         1 4S2      -0.094100
     25 C25         -4.2570    -0.0950     0.4110 ca         1 4S2       0.144400
     26 N26         -2.9260    -0.1090     0.2170 nc         1 4S2      -0.682100
     27 C27         -5.9510     0.0830     2.1340 ca         1 4S2      -0.076000
     28 C28         -6.9410    -0.0270     1.1830 ca         1 4S2      -0.139000
     29 C29         -6.6040    -0.1730    -0.1540 ca         1 4S2      -0.123000
     30 C30         -5.2890    -0.2010    -0.5450 ca         1 4S2      -0.099000
     31 H1           1.9580     0.0000     3.1750 hn         1 4S2       0.330500
     32 H3           3.9220    -0.0330     1.9150 hn         1 4S2       0.448800
     33 H4           0.8810     0.7760    -2.3680 h1         1 4S2       0.101700
     34 H5          -0.2850    -2.0240    -2.7380 h1         1 4S2       0.047700
     35 H6           0.3090    -2.0080    -4.9880 h1         1 4S2       0.030700
     36 H7           0.3680     0.8640    -5.3140 hc         1 4S2       0.088700
     37 H8          -1.8960     0.1460    -3.4740 hc         1 4S2       0.063200
     38 H9          -0.9780     1.6700    -3.5970 hc         1 4S2       0.063200
     39 H10          1.7900    -2.5940    -2.3220 ho         1 4S2       0.393000
     40 H11          2.2960    -1.4240    -5.4740 ho         1 4S2       0.397000
     41 H12         -0.8310    -0.8560    -6.7250 h1         1 4S2       0.021700
     42 H13         -1.9820    -1.0730    -5.3990 h1         1 4S2       0.021700
     43 H14         -2.4780     0.5520    -7.1490 ho         1 4S2       0.403000
     44 H15          3.4820    -0.1550    -1.1260 h1         1 4S2       0.154700
     45 H16          5.8870    -0.9190     0.6650 hc         1 4S2       0.079950
     46 H17          5.7500    -1.0830    -1.2020 hc         1 4S2       0.079950
     47 H18          5.3990     1.3500    -1.3890 hc         1 4S2       0.079950
     48 H19          5.5360     1.5130     0.4780 hc         1 4S2       0.079950
     49 H20         -6.2150     0.1960     3.1780 ha         1 4S2       0.132000
     50 H21         -7.9820    -0.0070     1.4800 ha         1 4S2       0.130000
     51 H22         -7.3870    -0.2590    -0.8980 ha         1 4S2       0.129000
     52 H23         -5.0420    -0.3150    -1.5940 ha         1 4S2       0.133000
     53 H2          -1.6920    -0.0550    -1.1850 hn         1 4S2       0.502800
@<TRIPOS>BOND
     1    28    29 ar
     2    28    27 ar
     3    29    30 ar
     4    27    24 ar
     5    30    25 ar
     6    24    25 ar
     7    24    23 1
     8    25    26 1
     9    23    10 1
    10    26    10 2
    11    10     6 1
    12     9     5 2
    13     6     5 1
    14     6     1 2
    15     5     4 1
    16     7     1 1
    17     7    11 1
    18     1     2 1
    19    15    11 1
    20    15    14 1
    21    11    12 1
    22     4     3 1
    23    19    18 1
    24     2     3 2
    25    14    18 1
    26    14    13 1
    27     3     8 1
    28    12    13 1
    29    12    16 1
    30    13    17 1
    31     8    20 1
    32    20    21 1
    33    20    22 1
    34    21    22 1
    35     4    31 1
    36     8    32 1
    37    11    33 1
    38    12    34 1
    39    13    35 1
    40    14    36 1
    41    15    37 1
    42    15    38 1
    43    16    39 1
    44    17    40 1
    45    18    41 1
    46    18    42 1
    47    19    43 1
    48    20    44 1
    49    21    45 1
    50    21    46 1
    51    22    47 1
    52    22    48 1
    53    27    49 1
    54    28    50 1
    55    29    51 1
    56    30    52 1
    57     7    53 1
@<TRIPOS>SUBSTRUCTURE
     1 4S2         1 TEMP              0 ****  ****    0 ROOT
