@<TRIPOS>MOLECULE
4S2
   53    57     1     0     0
SMALL
bcc


@<TRIPOS>ATOM
      1 C01          0.0000     0.0000     0.0000 cc         1 4S2       0.355600
      2 N02          1.3350     0.0000     0.0000 nc         1 4S2      -0.672300
      3 C03          2.0210     0.0000     1.1240 cd         1 4S2       0.430800
      4 N04          1.4070     0.0000     2.3390 ns         1 4S2      -0.032400
      5 C05          0.0590     0.0000     2.4210 c          1 4S2       0.651700
      6 C06         -0.6920     0.0000     1.2230 cd         1 4S2      -0.512800
      7 N07         -0.6930     0.0050    -1.1880 nu         1 4S2      -0.366000
      8 N08          3.3880    -0.0010     1.0700 nu         1 4S2      -0.386200
      9 O09         -0.4970     0.0020     3.5060 o          1 4S2      -0.686500
     10 C10         -2.1620     0.0010     1.2570 cd         1 4S2       0.585500
     11 C11          0.0290     0.1120    -2.4580 c3         1 4S2       0.116500
     12 C12          0.4780    -1.2860    -2.9530 c3         1 4S2       0.162100
     13 C13          0.6410    -1.1130    -4.4770 c3         1 4S2       0.162100
     14 C14         -0.2430     0.0800    -4.8820 c3         1 4S2      -0.084700
     15 C15         -0.9150     0.5890    -3.5890 c3         1 4S2      -0.020400
     16 O16          1.7220    -1.6540    -2.3550 oh         1 4S2      -0.548800
     17 O17          2.0070    -0.8380    -4.7940 oh         1 4S2      -0.558800
     18 C18         -1.3090    -0.3740    -5.8810 c3         1 4S2       0.230400
     19 O19         -2.0480     0.7620    -6.3370 oh         1 4S2      -0.589800
     20 C20          4.0680    -0.0020    -0.2280 cx         1 4S2       0.061500
     21 C21          5.4850    -0.5760    -0.2810 cx         1 4S2      -0.091400
     22 C22          5.2680     0.9340    -0.3970 cx         1 4S2      -0.091400
     23 S23         -3.1340     0.1570     2.7130 ss         1 4S2      -0.164100
     24 C24         -4.6100     0.0500     1.7580 ca         1 4S2      -0.054100
     25 C25         -4.2570    -0.0950     0.4110 ca         1 4S2       0.100400
     26 N26         -2.9260    -0.1090     0.2170 nc         1 4S2      -0.567100
     27 C27         -5.9510     0.0830     2.1340 ca         1 4S2      -0.033000
     28 C28         -6.9410    -0.0270     1.1830 ca         1 4S2      -0.117000
     29 C29         -6.6040    -0.1730    -0.1540 ca         1 4S2      -0.094000
     30 C30         -5.2890    -0.2010    -0.5450 ca         1 4S2      -0.075000
     31 H1           1.9580     0.0000     3.1750 hn         1 4S2       0.175500
     32 H3           3.9220    -0.0330     1.9150 hn         1 4S2       0.284800
     33 H4           0.8810     0.7760    -2.3680 h1         1 4S2       0.073700
     34 H5          -0.2850    -2.0240    -2.7380 h1         1 4S2       0.011700
     35 H6           0.3090    -2.0080    -4.9880 h1         1 4S2      -0.001300
     36 H7           0.3680     0.8640    -5.3140 hc         1 4S2       0.060700
     37 H8          -1.8960     0.1460    -3.4740 hc         1 4S2       0.031200
     38 H9          -0.9780     1.6700    -3.5970 hc         1 4S2       0.031200
     39 H10          1.7900    -2.5940    -2.3220 ho         1 4S2       0.377000
     40 H11          2.2960    -1.4240    -5.4740 ho         1 4S2       0.382000
     41 H12         -0.8310    -0.8560    -6.7250 h1         1 4S2      -0.014300
     42 H13         -1.9820    -1.0730    -5.3990 h1         1 4S2      -0.014300
     43 H14         -2.4780     0.5520    -7.1490 ho         1 4S2       0.390000
     44 H15          3.4820    -0.1550    -1.1260 h1         1 4S2       0.124700
     45 H16          5.8870    -0.9190     0.6650 hc         1 4S2       0.049450
     46 H17          5.7500    -1.0830    -1.2020 hc         1 4S2       0.049450
     47 H18          5.3990     1.3500    -1.3890 hc         1 4S2       0.049450
     48 H19          5.5360     1.5130     0.4780 hc         1 4S2       0.049450
     49 H20         -6.2150     0.1960     3.1780 ha         1 4S2       0.108000
     50 H21         -7.9820    -0.0070     1.4800 ha         1 4S2       0.104000
     51 H22         -7.3870    -0.2590    -0.8980 ha         1 4S2       0.101000
     52 H23         -5.0420    -0.3150    -1.5940 ha         1 4S2       0.105000
     53 H2          -1.6920    -0.0550    -1.1850 hn         1 4S2       0.359800
@<TRIPOS>BOND
     1     1     2 1   
     2     1     6 2   
     3     1     7 1   
     4     2     3 2   
     5     3     4 1   
     6     3     8 1   
     7     4     5 1   
     8     4    31 1   
     9     5     6 1   
    10     5     9 2   
    11     6    10 1   
    12     7    11 1   
    13     7    53 1   
    14     8    20 1   
    15     8    32 1   
    16    10    23 1   
    17    10    26 2   
    18    11    12 1   
    19    11    15 1   
    20    11    33 1   
    21    12    13 1   
    22    12    16 1   
    23    12    34 1   
    24    13    14 1   
    25    13    17 1   
    26    13    35 1   
    27    14    15 1   
    28    14    18 1   
    29    14    36 1   
    30    15    37 1   
    31    15    38 1   
    32    16    39 1   
    33    17    40 1   
    34    18    19 1   
    35    18    41 1   
    36    18    42 1   
    37    19    43 1   
    38    20    21 1   
    39    20    22 1   
    40    20    44 1   
    41    21    22 1   
    42    21    45 1   
    43    21    46 1   
    44    22    47 1   
    45    22    48 1   
    46    23    24 1   
    47    24    25 ar  
    48    24    27 ar  
    49    25    26 1   
    50    25    30 ar  
    51    27    28 ar  
    52    27    49 1   
    53    28    29 ar  
    54    28    50 1   
    55    29    30 ar  
    56    29    51 1   
    57    30    52 1   
@<TRIPOS>SUBSTRUCTURE
     1 4S2         1 TEMP              0 ****  ****    0 ROOT
