@<TRIPOS>MOLECULE
4S3
   53    57     1     0     0
SMALL
bcc


@<TRIPOS>ATOM
      1 C01          0.0000     0.0000     0.0000 cc         1 4S3       0.353600
      2 N02          1.3350     0.0000     0.0000 nc         1 4S3      -0.701300
      3 C03          2.0210     0.0000     1.1240 cd         1 4S3       0.457800
      4 N04          1.4070    -0.0010     2.3390 ns         1 4S3      -0.044400
      5 C05          0.0600    -0.0020     2.4200 c          1 4S3       0.651700
      6 C06         -0.6920    -0.0020     1.2220 cd         1 4S3      -0.508800
      7 N07         -0.6940     0.0060    -1.1880 nu         1 4S3      -0.365000
      8 N08          3.3870     0.0000     1.0680 nh         1 4S3      -0.413600
      9 O09         -0.4970    -0.0030     3.5050 o          1 4S3      -0.684500
     10 C10         -2.1630    -0.0030     1.2570 cd         1 4S3       0.581500
     11 C11          0.0290     0.1240    -2.4570 c3         1 4S3       0.123500
     12 C12          0.4990    -1.2610    -2.9090 c3         1 4S3       0.126800
     13 N13          1.2050    -1.1460    -4.1910 n7         1 4S3      -0.575200
     14 C14          0.3180    -0.6260    -5.2410 c3         1 4S3       0.142800
     15 C15         -0.1570     0.7780    -4.8580 c3         1 4S3      -0.018400
     16 C16         -0.9010     0.7140    -3.5220 c3         1 4S3      -0.036400
     17 C17          4.1950    -0.1230     2.2930 c3         1 4S3       0.123800
     18 C18          5.2370     1.0010     2.2990 c3         1 4S3       0.198900
     19 O19          5.9530     0.9860     1.0630 os         1 4S3      -0.400600
     20 C20          5.1420     1.2360    -0.0870 c3         1 4S3       0.198900
     21 C21          4.0940     0.1180    -0.2170 c3         1 4S3       0.123800
     22 S22         -3.1340     0.1500     2.7130 ss         1 4S3      -0.164100
     23 C23         -4.6110     0.0440     1.7580 ca         1 4S3      -0.052100
     24 C24         -4.2570    -0.0990     0.4110 ca         1 4S3       0.098400
     25 N25         -2.9260    -0.1110     0.2180 nc         1 4S3      -0.562100
     26 C26         -5.9500     0.0750     2.1350 ca         1 4S3      -0.034000
     27 C27         -6.9410    -0.0340     1.1830 ca         1 4S3      -0.115000
     28 C28         -6.6040    -0.1770    -0.1550 ca         1 4S3      -0.094000
     29 C29         -5.2900    -0.2030    -0.5450 ca         1 4S3      -0.073000
     30 H1           1.9570    -0.0000     3.1750 hn         1 4S3       0.188500
     31 H2          -1.6890    -0.1010    -1.1870 hn         1 4S3       0.360800
     32 H3           0.8880     0.7720    -2.3310 h1         1 4S3       0.059700
     33 H4           1.1700    -1.6730    -2.1650 h1         1 4S3       0.015700
     34 H5          -0.3590    -1.9110    -3.0280 h1         1 4S3       0.015700
     35 H6           1.5530    -2.0440    -4.4620 hn         1 4S3       0.251800
     36 H8          -0.5390    -1.2800    -5.3450 h1         1 4S3       0.006200
     37 H9           0.8600    -0.5790    -6.1780 h1         1 4S3       0.006200
     38 H10         -0.8240     1.1540    -5.6250 hc         1 4S3       0.020700
     39 H11          0.7000     1.4340    -4.7630 hc         1 4S3       0.020700
     40 H12         -1.2000     1.7130    -3.2270 hc         1 4S3       0.021200
     41 H13         -1.7760     0.0840    -3.6260 hc         1 4S3       0.021200
     42 H14          3.5540    -0.0290     3.1620 h1         1 4S3       0.042950
     43 H15          4.6950    -1.0830     2.3040 h1         1 4S3       0.042950
     44 H16          5.9290     0.8470     3.1180 h1         1 4S3       0.019450
     45 H17          4.7380     1.9560     2.4150 h1         1 4S3       0.019450
     46 H18          4.6410     2.1890     0.0250 h1         1 4S3       0.019450
     47 H19          5.7650     1.2500    -0.9730 h1         1 4S3       0.019450
     48 H20          3.3880     0.3700    -0.9990 h1         1 4S3       0.042950
     49 H21          4.5860    -0.8180    -0.4490 h1         1 4S3       0.042950
     50 H22         -6.2150     0.1870     3.1790 ha         1 4S3       0.108000
     51 H23         -7.9820    -0.0140     1.4810 ha         1 4S3       0.105000
     52 H24         -7.3870    -0.2620    -0.8990 ha         1 4S3       0.101000
     53 H25         -5.0430    -0.3150    -1.5940 ha         1 4S3       0.105000
@<TRIPOS>BOND
     1     1     2 1   
     2     1     6 2   
     3     1     7 1   
     4     2     3 2   
     5     3     4 1   
     6     3     8 1   
     7     4     5 1   
     8     4    30 1   
     9     5     6 1   
    10     5     9 2   
    11     6    10 1   
    12     7    11 1   
    13     7    31 1   
    14     8    17 1   
    15     8    21 1   
    16    10    22 1   
    17    10    25 2   
    18    11    12 1   
    19    11    16 1   
    20    11    32 1   
    21    12    13 1   
    22    12    33 1   
    23    12    34 1   
    24    13    14 1   
    25    13    35 1   
    26    14    15 1   
    27    14    36 1   
    28    14    37 1   
    29    15    16 1   
    30    15    38 1   
    31    15    39 1   
    32    16    40 1   
    33    16    41 1   
    34    17    18 1   
    35    17    42 1   
    36    17    43 1   
    37    18    19 1   
    38    18    44 1   
    39    18    45 1   
    40    19    20 1   
    41    20    21 1   
    42    20    46 1   
    43    20    47 1   
    44    21    48 1   
    45    21    49 1   
    46    22    23 1   
    47    23    24 ar  
    48    23    26 ar  
    49    24    25 1   
    50    24    29 ar  
    51    26    27 ar  
    52    26    50 1   
    53    27    28 ar  
    54    27    51 1   
    55    28    29 ar  
    56    28    52 1   
    57    29    53 1   
@<TRIPOS>SUBSTRUCTURE
     1 4S3         1 TEMP              0 ****  ****    0 ROOT
