@<TRIPOS>MOLECULE
molecule
   53    57     1     0     0
SMALL
bcc


@<TRIPOS>ATOM
      1 C01          0.0000     0.0000     0.0000 cc         1 4S3       0.528600
      2 N02          1.3350     0.0000     0.0000 nc         1 4S3      -0.787300
      3 C03          2.0210     0.0000     1.1240 cd         1 4S3       0.774800
      4 N04          1.4070    -0.0010     2.3390 ns         1 4S3      -0.486400
      5 C05          0.0600    -0.0020     2.4200 c          1 4S3       0.735700
      6 C06         -0.6920    -0.0020     1.2220 cd         1 4S3      -0.479800
      7 N07         -0.6940     0.0060    -1.1880 nu         1 4S3      -0.757000
      8 N08          3.3870     0.0000     1.0680 nh         1 4S3      -0.778600
      9 O09         -0.4970    -0.0030     3.5050 o          1 4S3      -0.652500
     10 C10         -2.1630    -0.0030     1.2570 cd         1 4S3       0.560500
     11 C11          0.0290     0.1240    -2.4570 c3         1 4S3       0.233500
     12 C12          0.4990    -1.2610    -2.9090 c3         1 4S3       0.140800
     13 N13          1.2050    -1.1460    -4.1910 n7         1 4S3      -0.820200
     14 C14          0.3180    -0.6260    -5.2410 c3         1 4S3       0.153800
     15 C15         -0.1570     0.7780    -4.8580 c3         1 4S3      -0.075400
     16 C16         -0.9010     0.7140    -3.5220 c3         1 4S3      -0.093400
     17 C17          4.1950    -0.1230     2.2930 c3         1 4S3       0.197300
     18 C18          5.2370     1.0010     2.2990 c3         1 4S3       0.119400
     19 O19          5.9530     0.9860     1.0630 os         1 4S3      -0.414600
     20 C20          5.1420     1.2360    -0.0870 c3         1 4S3       0.119400
     21 C21          4.0940     0.1180    -0.2170 c3         1 4S3       0.197300
     22 S22         -3.1340     0.1500     2.7130 ss         1 4S3      -0.045100
     23 C23         -4.6110     0.0440     1.7580 ca         1 4S3      -0.092100
     24 C24         -4.2570    -0.0990     0.4110 ca         1 4S3       0.144400
     25 N25         -2.9260    -0.1110     0.2180 nc         1 4S3      -0.678100
     26 C26         -5.9500     0.0750     2.1350 ca         1 4S3      -0.077000
     27 C27         -6.9410    -0.0340     1.1830 ca         1 4S3      -0.138000
     28 C28         -6.6040    -0.1770    -0.1550 ca         1 4S3      -0.123000
     29 C29         -5.2900    -0.2030    -0.5450 ca         1 4S3      -0.098000
     30 H1           1.9570    -0.0000     3.1750 hn         1 4S3       0.335500
     31 H2          -1.6890    -0.1010    -1.1870 hn         1 4S3       0.503800
     32 H3           0.8880     0.7720    -2.3310 h1         1 4S3       0.082700
     33 H4           1.1700    -1.6730    -2.1650 h1         1 4S3       0.042200
     34 H5          -0.3590    -1.9110    -3.0280 h1         1 4S3       0.042200
     35 H6           1.5530    -2.0440    -4.4620 hn         1 4S3       0.355800
     36 H8          -0.5390    -1.2800    -5.3450 h1         1 4S3       0.032700
     37 H9           0.8600    -0.5790    -6.1780 h1         1 4S3       0.032700
     38 H10         -0.8240     1.1540    -5.6250 hc         1 4S3       0.051200
     39 H11          0.7000     1.4340    -4.7630 hc         1 4S3       0.051200
     40 H12         -1.2000     1.7130    -3.2270 hc         1 4S3       0.050200
     41 H13         -1.7760     0.0840    -3.6260 hc         1 4S3       0.050200
     42 H14          3.5540    -0.0290     3.1620 h1         1 4S3       0.071450
     43 H15          4.6950    -1.0830     2.3040 h1         1 4S3       0.071450
     44 H16          5.9290     0.8470     3.1180 h1         1 4S3       0.061450
     45 H17          4.7380     1.9560     2.4150 h1         1 4S3       0.061450
     46 H18          4.6410     2.1890     0.0250 h1         1 4S3       0.061450
     47 H19          5.7650     1.2500    -0.9730 h1         1 4S3       0.061450
     48 H20          3.3880     0.3700    -0.9990 h1         1 4S3       0.071450
     49 H21          4.5860    -0.8180    -0.4490 h1         1 4S3       0.071450
     50 H22         -6.2150     0.1870     3.1790 ha         1 4S3       0.133000
     51 H23         -7.9820    -0.0140     1.4810 ha         1 4S3       0.131000
     52 H24         -7.3870    -0.2620    -0.8990 ha         1 4S3       0.130000
     53 H25         -5.0430    -0.3150    -1.5940 ha         1 4S3       0.133000
@<TRIPOS>BOND
     1    27    28 ar  
     2    27    26 ar  
     3    28    29 ar  
     4    26    23 ar  
     5    29    24 ar  
     6    23    24 ar  
     7    23    22 1   
     8    24    25 1   
     9    22    10 1   
    10    25    10 2   
    11    10     6 1   
    12     9     5 2   
    13     6     5 1   
    14     6     1 2   
    15     5     4 1   
    16     7     1 1   
    17     7    11 1   
    18    16    11 1   
    19    16    15 1   
    20     1     2 1   
    21     4     3 1   
    22    11    12 1   
    23    15    14 1   
    24     2     3 2   
    25     3     8 1   
    26    12    13 1   
    27    14    13 1   
    28     8    21 1   
    29     8    17 1   
    30    21    20 1   
    31    17    18 1   
    32    20    19 1   
    33    18    19 1   
    34     4    30 1   
    35     7    31 1   
    36    11    32 1   
    37    12    33 1   
    38    12    34 1   
    39    13    35 1   
    40    14    36 1   
    41    14    37 1   
    42    15    38 1   
    43    15    39 1   
    44    16    40 1   
    45    16    41 1   
    46    17    42 1   
    47    17    43 1   
    48    18    44 1   
    49    18    45 1   
    50    20    46 1   
    51    20    47 1   
    52    21    48 1   
    53    21    49 1   
    54    26    50 1   
    55    27    51 1   
    56    28    52 1   
    57    29    53 1   
@<TRIPOS>SUBSTRUCTURE
     1 4S3         1 TEMP              0 ****  ****    0 ROOT
