@<TRIPOS>MOLECULE
4S4
   33    34     1     0     0
SMALL
bcc


@<TRIPOS>ATOM
      1 C2           0.0000     0.0000     0.0000 c          1 4S4       0.613700
      2 C4          -2.0620    -0.1070    -1.1690 ca         1 4S4      -0.105400
      3 C5          -2.7020    -0.8660    -0.1950 ca         1 4S4      -0.131000
      4 C6          -4.0750    -0.9730    -0.1950 ca         1 4S4      -0.050000
      5 C7          -4.8260    -0.3170    -1.1740 ca         1 4S4      -0.133600
      6 C8          -4.1800     0.4460    -2.1510 ca         1 4S4      -0.050000
      7 C17          1.4660     0.0000     0.0000 cc         1 4S4      -0.394900
      8 C18          2.2810     0.0000     1.1130 cd         1 4S4      -0.055000
      9 C19          3.6020    -0.0060     0.6560 cd         1 4S4      -0.035900
     10 C21          3.5730    -0.0100    -0.7010 cc         1 4S4      -0.198200
     11 O1          -0.6090     0.0060     1.0540 o          1 4S4      -0.613100
     12 N3          -0.6730    -0.0010    -1.1670 ns         1 4S4      -0.029100
     13 C9          -2.8070     0.5440    -2.1490 ca         1 4S4      -0.131000
     14 C10         -6.2970    -0.4290    -1.1770 c          1 4S4       0.557700
     15 O11         -6.8580    -1.0930    -0.3270 o          1 4S4      -0.692100
     16 N12         -7.0190     0.2050    -2.1220 ns         1 4S4      -0.139900
     17 C13         -8.4800     0.0930    -2.1250 c3         1 4S4      -0.074000
     18 C14         -9.0420     0.8880    -3.2750 c          1 4S4       0.972600
     19 O15        -10.3690     0.9320    -3.4770 o          1 4S4      -0.892300
     20 O16         -8.2990     1.4870    -4.0160 o          1 4S4      -0.892300
     21 Br1          5.1540    -0.0080     1.7360 br         1 4S4      -0.084100
     22 Br2          5.0860    -0.0190    -1.8340 br         1 4S4      -0.042100
     23 N23          2.2800    -0.0070    -1.1110 na         1 4S4       0.445900
     24 H1          -2.1200    -1.3750     0.5640 ha         1 4S4       0.116000
     25 H2          -4.5730    -1.5650     0.5640 ha         1 4S4       0.127000
     26 H3          -4.7590     0.9540    -2.9130 ha         1 4S4       0.127000
     27 H4           1.9580     0.0040     2.1470 ha         1 4S4       0.152000
     28 H5          -0.1730     0.0390    -2.0330 hn         1 4S4       0.148500
     29 H6          -2.3060     1.1340    -2.9070 ha         1 4S4       0.116000
     30 H7          -6.5580     0.7520    -2.8220 hn         1 4S4       0.197500
     31 H8          -8.8740     0.4790    -1.1930 h1         1 4S4       0.026200
     32 H9          -8.7630    -0.9470    -2.2330 h1         1 4S4       0.026200
     33 H11          1.9690    -0.0090    -2.0620 hn         1 4S4       0.115700
@<TRIPOS>BOND
     1     1     7 1   
     2     1    11 2   
     3     1    12 1   
     4     2     3 ar  
     5     2    12 1   
     6     2    13 ar  
     7     3     4 ar  
     8     3    24 1   
     9     4     5 ar  
    10     4    25 1   
    11     5     6 ar  
    12     5    14 1   
    13     6    13 ar  
    14     6    26 1   
    15     7     8 2   
    16     7    23 1   
    17     8     9 1   
    18     8    27 1   
    19     9    10 2   
    20     9    21 1   
    21    10    22 1   
    22    10    23 1   
    23    12    28 1   
    24    13    29 1   
    25    14    15 2   
    26    14    16 1   
    27    16    17 1   
    28    16    30 1   
    29    17    18 1   
    30    17    31 1   
    31    17    32 1   
    32    18    19 1   
    33    18    20 1   
    34    23    33 1   
@<TRIPOS>SUBSTRUCTURE
     1 4S4         1 TEMP              0 ****  ****    0 ROOT
