@<TRIPOS>MOLECULE
4S7
   72    71     1     0     0
SMALL
bcc


@<TRIPOS>ATOM
      1 C2           0.0000     0.0000     0.0000 c3         1 4S7       0.002600
      2 C9          -9.0720    -1.2290     7.2310 c3         1 4S7      -0.027400
      3 C10         -9.9520    -2.3190     7.9170 c3         1 4S7      -0.026400
      4 C4          -3.8210    -1.3040     3.5590 c3         1 4S7       0.303400
      5 C3           1.5290     0.0000     0.0000 c3         1 4S7       0.185800
      6 C8          -8.0440    -1.9140     6.2800 c3         1 4S7      -0.027400
      7 C7          -6.9730    -0.8740     5.8350 c3         1 4S7      -0.027400
      8 C6          -5.8080    -1.6070     5.1130 c3         1 4S7      -0.024400
      9 C5          -4.8960    -0.5640     4.4100 c3         1 4S7      -0.052400
     10 P1          -2.2180    -0.7850     1.5040 p5         1 4S7       0.691600
     11 C1          -0.5100     0.0000     1.4420 c3         1 4S7      -0.010600
     12 O2          -3.0350    -0.3050     0.3300 o          1 4S7      -0.594500
     13 O3          -2.9790    -0.3530     2.9270 os         1 4S7      -0.497200
     14 N1           2.0180     0.0000    -1.3810 n2         1 4S7      -0.336200
     15 N2           2.6640     0.8440    -1.7490 n1         1 4S7       0.770000
     16 N3           3.3080     1.6960    -2.0990 n2         1 4S7      -0.501400
     17 C11        -11.1720    -1.6410     8.6120 c3         1 4S7      -0.028400
     18 C12        -11.8390    -2.6510     9.5940 c3         1 4S7      -0.027400
     19 C13        -13.3130    -2.2220     9.8600 c3         1 4S7      -0.026400
     20 C14        -13.9990    -3.2700    10.7860 c3         1 4S7      -0.027400
     21 C15        -15.4970    -2.8920    10.9790 c3         1 4S7      -0.027400
     22 C16        -16.2700    -4.1150    11.5500 c3         1 4S7      -0.027400
     23 C17        -17.6650    -3.6550    12.0570 c3         1 4S7      -0.027400
     24 C18        -18.5620    -4.8980    12.3010 c3         1 4S7      -0.028400
     25 C19        -19.7590    -4.5020    13.1920 c3         1 4S7      -0.029400
     26 C20        -20.7810    -5.6540    13.2200 c3         1 4S7      -0.028400
     27 C21        -21.8000    -5.4090    14.3470 c3         1 4S7       0.006900
     28 H1          -0.3610    -0.9480    -0.3800 hc         1 4S7       0.045200
     29 H2          -0.3610     0.8030    -0.6310 hc         1 4S7       0.045200
     30 H3          -9.7050    -0.5610     6.6580 hc         1 4S7       0.012200
     31 H4          -8.5420    -0.6630     7.9870 hc         1 4S7       0.012200
     32 H5         -10.3060    -3.0200     7.1710 hc         1 4S7       0.013200
     33 H6          -9.3620    -2.8460     8.6570 hc         1 4S7       0.013200
     34 H7          -4.3110    -1.9100     2.8060 h1         1 4S7      -0.017300
     35 H8          -3.2260    -1.9410     4.2030 h1         1 4S7      -0.017300
     36 H9           1.8900     0.8030     0.6310 h1         1 4S7       0.036200
     37 H10          1.8900    -0.9480     0.3800 h1         1 4S7       0.036200
     38 H11         -7.5600    -2.7310     6.8010 hc         1 4S7       0.013200
     39 H12         -8.5590    -2.2970     5.4070 hc         1 4S7       0.013200
     40 H13         -6.5900    -0.3560     6.7060 hc         1 4S7       0.011700
     41 H14         -7.4240    -0.1580     5.1580 hc         1 4S7       0.011700
     42 H15         -6.2120    -2.2890     4.3750 hc         1 4S7       0.011200
     43 H16         -5.2270    -2.1630     5.8390 hc         1 4S7       0.011200
     44 H17         -4.4060     0.0490     5.1570 hc         1 4S7       0.012700
     45 H18         -5.4970     0.0650     3.7640 hc         1 4S7       0.012700
     46 H19          0.1710    -0.5670     2.0660 hc         1 4S7       0.021200
     47 H20         -0.5680     1.0190     1.8040 hc         1 4S7       0.021200
     48 H22          3.5400     2.4390    -1.4710 hn         1 4S7       0.455400
     49 H23        -11.8920    -1.3370     7.8620 hc         1 4S7       0.012700
     50 H24        -10.8360    -0.7710     9.1640 hc         1 4S7       0.012700
     51 H25        -11.8250    -3.6420     9.1560 hc         1 4S7       0.013200
     52 H26        -11.2910    -2.6620    10.5280 hc         1 4S7       0.013200
     53 H27        -13.8480    -2.1650     8.9200 hc         1 4S7       0.013200
     54 H28        -13.3250    -1.2520    10.3420 hc         1 4S7       0.013200
     55 H29        -13.9290    -4.2520    10.3330 hc         1 4S7       0.013200
     56 H30        -13.5020    -3.2800    11.7490 hc         1 4S7       0.013200
     57 H31        -15.5740    -2.0610    11.6690 hc         1 4S7       0.013700
     58 H32        -15.9240    -2.6090    10.0240 hc         1 4S7       0.013700
     59 H33        -15.7100    -4.5430    12.3730 hc         1 4S7       0.013700
     60 H34        -16.3950    -4.8580    10.7730 hc         1 4S7       0.013700
     61 H35        -17.5490    -3.1060    12.9840 hc         1 4S7       0.013700
     62 H36        -18.1270    -3.0170    11.3140 hc         1 4S7       0.013700
     63 H37        -18.9260    -5.2720    11.3520 hc         1 4S7       0.013700
     64 H38        -17.9840    -5.6690    12.7950 hc         1 4S7       0.013700
     65 H39        -19.4110    -4.3030    14.1980 hc         1 4S7       0.014200
     66 H40        -20.2290    -3.6120    12.7910 hc         1 4S7       0.014200
     67 H41        -21.2980    -5.7010    12.2700 hc         1 4S7       0.011700
     68 H42        -20.2650    -6.5900    13.3970 hc         1 4S7       0.011700
     69 H43        -22.5760    -6.1640    14.3030 hc         1 4S7      -0.000300
     70 H44        -21.2980    -5.4630    15.3060 hc         1 4S7      -0.000300
     71 H45        -22.2430    -4.4280    14.2270 hc         1 4S7      -0.000300
     72 O1          -2.0840    -2.2820     1.4420 o          1 4S7      -0.594500
@<TRIPOS>BOND
     1     1     5 1   
     2     1    11 1   
     3     1    28 1   
     4     1    29 1   
     5     2     3 1   
     6     2     6 1   
     7     2    30 1   
     8     2    31 1   
     9     3    17 1   
    10     3    32 1   
    11     3    33 1   
    12     4     9 1   
    13     4    13 1   
    14     4    34 1   
    15     4    35 1   
    16     5    14 1   
    17     5    36 1   
    18     5    37 1   
    19     6     7 1   
    20     6    38 1   
    21     6    39 1   
    22     7     8 1   
    23     7    40 1   
    24     7    41 1   
    25     8     9 1   
    26     8    42 1   
    27     8    43 1   
    28     9    44 1   
    29     9    45 1   
    30    10    11 1   
    31    10    12 1   
    32    10    13 1   
    33    10    72 1   
    34    11    46 1   
    35    11    47 1   
    36    14    15 2   
    37    15    16 2   
    38    16    48 1   
    39    17    18 1   
    40    17    49 1   
    41    17    50 1   
    42    18    19 1   
    43    18    51 1   
    44    18    52 1   
    45    19    20 1   
    46    19    53 1   
    47    19    54 1   
    48    20    21 1   
    49    20    55 1   
    50    20    56 1   
    51    21    22 1   
    52    21    57 1   
    53    21    58 1   
    54    22    23 1   
    55    22    59 1   
    56    22    60 1   
    57    23    24 1   
    58    23    61 1   
    59    23    62 1   
    60    24    25 1   
    61    24    63 1   
    62    24    64 1   
    63    25    26 1   
    64    25    65 1   
    65    25    66 1   
    66    26    27 1   
    67    26    67 1   
    68    26    68 1   
    69    27    69 1   
    70    27    70 1   
    71    27    71 1   
@<TRIPOS>SUBSTRUCTURE
     1 4S7         1 TEMP              0 ****  ****    0 ROOT
