@<TRIPOS>MOLECULE
molecule
   72    71     1     0     0
SMALL
bcc


@<TRIPOS>ATOM
      1 C2           0.0000     0.0000     0.0000 c3         1 4S7      -0.057400
      2 C9          -8.3370     0.5310     7.9670 c3         1 4S7      -0.082400
      3 C10         -9.8580     0.5920     8.0950 c3         1 4S7      -0.082400
      4 C4          -4.2960    -0.1770     3.2150 c3         1 4S7       0.205400
      5 C3           1.5290     0.0000     0.0000 c3         1 4S7       0.182800
      6 C8          -7.9420     0.6930     6.5010 c3         1 4S7      -0.082400
      7 C7          -6.4700     0.3260     6.3270 c3         1 4S7      -0.080400
      8 C6          -6.1170     0.3320     4.8410 c3         1 4S7      -0.082400
      9 C5          -4.6110     0.1390     4.6750 c3         1 4S7      -0.089400
     10 P1          -2.3630    -0.1710     1.4440 p5         1 4S7       1.178600
     11 C1          -0.5100     0.0000     1.4420 c3         1 4S7      -0.216600
     12 O2          -2.9680     0.8920     0.5590 o          1 4S7      -0.767500
     13 O3          -2.9290     0.0080     2.9820 os         1 4S7      -0.597200
     14 N1           2.0180     0.0000    -1.3810 n2         1 4S7      -0.223200
     15 N2           2.6640     0.8440    -1.7490 n1         1 4S7       0.410000
     16 N3           3.3100     1.6790    -2.1350 n2         1 4S7      -0.474400
     17 C11        -10.2370     0.8050     9.5590 c3         1 4S7      -0.082400
     18 C12        -11.7460     0.6360     9.7230 c3         1 4S7      -0.082400
     19 C13        -12.1760     1.1910    11.0790 c3         1 4S7      -0.082400
     20 C14        -13.6980     1.1400    11.1910 c3         1 4S7      -0.082400
     21 C15        -14.1260     1.6630    12.5600 c3         1 4S7      -0.082400
     22 C16        -15.6190     1.9830    12.5390 c3         1 4S7      -0.082400
     23 C17        -16.1230     2.1560    13.9700 c3         1 4S7      -0.082400
     24 C18        -17.5310     2.7480    13.9460 c3         1 4S7      -0.082400
     25 C19        -18.1550     2.6340    15.3350 c3         1 4S7      -0.081400
     26 C20        -19.4540     3.4340    15.3770 c3         1 4S7      -0.084400
     27 C21        -20.1710     3.1740    16.7000 c3         1 4S7      -0.092100
     28 H1          -0.3610     0.8540    -0.5600 hc         1 4S7       0.092200
     29 H2          -0.3610    -0.9120    -0.4600 hc         1 4S7       0.092200
     30 H3          -7.8930     1.3290     8.5510 hc         1 4S7       0.039700
     31 H4          -7.9820    -0.4240     8.3340 hc         1 4S7       0.039700
     32 H5         -10.2370     1.4150     7.5000 hc         1 4S7       0.041700
     33 H6         -10.2870    -0.3370     7.7420 hc         1 4S7       0.041700
     34 H7          -4.5630    -1.2060     3.0020 h1         1 4S7       0.032700
     35 H8          -4.8640     0.4830     2.5710 h1         1 4S7       0.032700
     36 H9           1.8900     0.8540     0.5600 h1         1 4S7       0.089200
     37 H10          1.8900    -0.9120     0.4600 h1         1 4S7       0.089200
     38 H11         -8.5520     0.0400     5.8890 hc         1 4S7       0.041700
     39 H12         -8.0970     1.7210     6.1970 hc         1 4S7       0.041700
     40 H13         -6.2930    -0.6610     6.7360 hc         1 4S7       0.039200
     41 H14         -5.8540     1.0490     6.8470 hc         1 4S7       0.039200
     42 H15         -6.6410    -0.4740     4.3420 hc         1 4S7       0.042700
     43 H16         -6.4100     1.2790     4.4040 hc         1 4S7       0.042700
     44 H17         -4.2810    -0.6810     5.3020 hc         1 4S7       0.042700
     45 H18         -4.0960     1.0460     4.9670 hc         1 4S7       0.042700
     46 H19         -0.2330     0.9300     1.9230 hc         1 4S7       0.057200
     47 H20         -0.0700    -0.8300     1.9810 hc         1 4S7       0.057200
     48 H22          3.5600     2.4370    -1.5320 hn         1 4S7       0.594400
     49 H23         -9.9510     1.8040     9.8650 hc         1 4S7       0.040700
     50 H24         -9.7230     0.0770    10.1750 hc         1 4S7       0.040700
     51 H25        -12.2580     1.1730     8.9340 hc         1 4S7       0.041200
     52 H26        -12.0000    -0.4160     9.6670 hc         1 4S7       0.041200
     53 H27        -11.7360     0.5960    11.8690 hc         1 4S7       0.040700
     54 H28        -11.8420     2.2180    11.1710 hc         1 4S7       0.040700
     55 H29        -14.1380     1.7550    10.4150 hc         1 4S7       0.041200
     56 H30        -14.0340     0.1170    11.0740 hc         1 4S7       0.041200
     57 H31        -13.9290     0.9090    13.3120 hc         1 4S7       0.040700
     58 H32        -13.5680     2.5610    12.7940 hc         1 4S7       0.040700
     59 H33        -15.7850     2.8980    11.9840 hc         1 4S7       0.040700
     60 H34        -16.1560     1.1700    12.0630 hc         1 4S7       0.040700
     61 H35        -15.4600     2.8230    14.5080 hc         1 4S7       0.040700
     62 H36        -16.1450     1.1930    14.4650 hc         1 4S7       0.040700
     63 H37        -17.4790     3.7910    13.6580 hc         1 4S7       0.040700
     64 H38        -18.1380     2.2060    13.2320 hc         1 4S7       0.040700
     65 H39        -17.4660     3.0250    16.0740 hc         1 4S7       0.040700
     66 H40        -18.3640     1.5930    15.5530 hc         1 4S7       0.040700
     67 H41        -20.0920     3.1310    14.5550 hc         1 4S7       0.039700
     68 H42        -19.2310     4.4910    15.2900 hc         1 4S7       0.039700
     69 H43        -19.4930     3.3680    17.5220 hc         1 4S7       0.032367
     70 H44        -21.0310     3.8270    16.7800 hc         1 4S7       0.032367
     71 H45        -20.4960     2.1410    16.7370 hc         1 4S7       0.032367
     72 O1          -2.7430    -1.5370     0.9240 o          1 4S7      -0.767500
@<TRIPOS>BOND
     1    27    26 1
     2    26    25 1
     3    25    24 1
     4    24    23 1
     5    23    22 1
     6    22    21 1
     7    20    21 1
     8    20    19 1
     9    17    18 1
    10    17     3 1
    11    18    19 1
    12     3     2 1
    13     2     6 1
    14     6     7 1
    15     7     8 1
    16     8     9 1
    17     9     4 1
    18     4    13 1
    19    13    10 1
    20    12    10 1
    21    16    15 2
    22    15    14 2
    23    10    11 1
    24    14     5 1
    25     1    11 1
    26     1     5 1
    27     1    28 1
    28     1    29 1
    29     2    30 1
    30     2    31 1
    31     3    32 1
    32     3    33 1
    33     4    34 1
    34     4    35 1
    35     5    36 1
    36     5    37 1
    37     6    38 1
    38     6    39 1
    39     7    40 1
    40     7    41 1
    41     8    42 1
    42     8    43 1
    43     9    44 1
    44     9    45 1
    45    11    46 1
    46    11    47 1
    47    16    48 1
    48    17    49 1
    49    17    50 1
    50    18    51 1
    51    18    52 1
    52    19    53 1
    53    19    54 1
    54    20    55 1
    55    20    56 1
    56    21    57 1
    57    21    58 1
    58    22    59 1
    59    22    60 1
    60    23    61 1
    61    23    62 1
    62    24    63 1
    63    24    64 1
    64    25    65 1
    65    25    66 1
    66    26    67 1
    67    26    68 1
    68    27    69 1
    69    27    70 1
    70    27    71 1
    71    10    72 1
@<TRIPOS>SUBSTRUCTURE
     1 4S7         1 TEMP              0 ****  ****    0 ROOT
