@<TRIPOS>MOLECULE
4S9
   37    37     1     0     0
SMALL
bcc


@<TRIPOS>ATOM
      1 C4           0.0000     0.0000     0.0000 ca         1 4S9      -0.117300
      2 C5          -0.7530     0.0060    -1.3050 c3         1 4S9       0.026000
      3 C6          -0.7840    -1.4380    -3.2680 c          1 4S9       0.698100
      4 C11         -0.7850     1.4060    -1.8610 c          1 4S9       0.560100
      5 C7          -0.9860    -2.8150    -5.2060 c3         1 4S9       0.196800
      6 C8          -2.1170    -3.6440    -4.5960 c3         1 4S9      -0.029767
      7 C9          -0.1190    -3.7100    -6.0960 c3         1 4S9      -0.029767
      8 C10         -1.5790    -1.6830    -6.0460 c3         1 4S9      -0.029767
      9 C12          1.3820     0.0000     0.0000 ca         1 4S9      -0.087500
     10 C13          2.0740     0.0000     1.1970 ca         1 4S9      -0.074000
     11 N1          -0.0840    -0.8830    -2.2590 ns         1 4S9      -0.149900
     12 N2          -1.3550     2.4000    -1.1510 ns         1 4S9      -0.049400
     13 C3          -0.6920     0.0000     1.1970 ca         1 4S9      -0.087500
     14 Br1          2.3270    -0.0000     4.0330 br         1 4S9      -0.115100
     15 C1           1.3820    -0.0010     2.3960 ca         1 4S9       0.037100
     16 C2          -0.0010     0.0010     2.3950 ca         1 4S9      -0.074000
     17 O1          -0.1690    -2.2540    -4.1440 os         1 4S9      -0.414900
     18 O2          -1.9700    -1.2000    -3.3870 o          1 4S9      -0.666000
     19 O3          -0.2960     1.6390    -2.9460 o          1 4S9      -0.605100
     20 O4          -1.3850     3.7160    -1.6730 oh         1 4S9      -0.436100
     21 H1          -1.7660    -0.3400    -1.1390 h1         1 4S9       0.069700
     22 H2          -2.4890    -4.3450    -5.3340 hc         1 4S9       0.019144
     23 H3          -1.7430    -4.1890    -3.7370 hc         1 4S9       0.019144
     24 H4          -2.9200    -2.9870    -4.2860 hc         1 4S9       0.019144
     25 H5           0.3060    -4.5090    -5.5000 hc         1 4S9       0.019144
     26 H6           0.6780    -3.1220    -6.5320 hc         1 4S9       0.019144
     27 H7          -0.7290    -4.1340    -6.8850 hc         1 4S9       0.019144
     28 H8          -1.8060    -2.0510    -7.0400 hc         1 4S9       0.019144
     29 H9          -0.8630    -0.8720    -6.1160 hc         1 4S9       0.019144
     30 H10         -2.4870    -1.3230    -5.5780 hc         1 4S9       0.019144
     31 H11          1.9240     0.0000    -0.9380 ha         1 4S9       0.116000
     32 H12          3.1570     0.0000     1.1970 ha         1 4S9       0.121000
     33 H13          0.8850    -1.1040    -2.1420 hn         1 4S9       0.184500
     34 H14         -1.7840     2.2020    -0.2690 hn         1 4S9       0.156500
     35 H15         -1.7750     0.0020     1.1960 ha         1 4S9       0.116000
     36 H16         -0.5430     0.0010     3.3320 ha         1 4S9       0.121000
     37 H17         -2.0140     4.2300    -1.1930 ho         1 4S9       0.392000
@<TRIPOS>BOND
     1     1     2 1   
     2     1     9 ar  
     3     1    13 ar  
     4     2     4 1   
     5     2    11 1   
     6     2    21 1   
     7     3    11 1   
     8     3    17 1   
     9     3    18 2   
    10     4    12 1   
    11     4    19 2   
    12     5     6 1   
    13     5     7 1   
    14     5     8 1   
    15     5    17 1   
    16     6    22 1   
    17     6    23 1   
    18     6    24 1   
    19     7    25 1   
    20     7    26 1   
    21     7    27 1   
    22     8    28 1   
    23     8    29 1   
    24     8    30 1   
    25     9    10 ar  
    26     9    31 1   
    27    10    15 ar  
    28    10    32 1   
    29    11    33 1   
    30    12    20 1   
    31    12    34 1   
    32    13    16 ar  
    33    13    35 1   
    34    14    15 1   
    35    15    16 ar  
    36    16    36 1   
    37    20    37 1   
@<TRIPOS>SUBSTRUCTURE
     1 4S9         1 TEMP              0 ****  ****    0 ROOT
