@<TRIPOS>MOLECULE
molecule
   47    48     1     0     0
SMALL
bcc


@<TRIPOS>ATOM
      1 C4           0.0000     0.0000     0.0000 ca         1 4SA      -0.121000
      2 C14          5.0520    -1.6920    12.1380 c3         1 4SA      -0.106433
      3 C5           1.3830     0.0000     0.0000 ca         1 4SA      -0.126000
      4 C6           2.0760     0.0000     1.1930 ca         1 4SA      -0.115500
      5 C11          4.2500     0.0020     7.3940 c3         1 4SA       0.127000
      6 C7           2.1200     0.0020     3.6870 cp         1 4SA      -0.019000
      7 C8           3.5130    -0.0040     3.6930 ca         1 4SA      -0.115500
      8 C9           4.1960    -0.0050     4.8930 ca         1 4SA      -0.115000
      9 C10          3.4990     0.0030     6.0880 ca         1 4SA      -0.114300
     10 C13          4.4490    -2.8200    11.2970 c3         1 4SA       0.179800
     11 N1           3.5710    -0.8800     8.3470 ns         1 4SA      -0.551900
     12 C3          -0.6960     0.0070     1.1950 ca         1 4SA      -0.126000
     13 C1           1.3800     0.0010     2.4000 cp         1 4SA      -0.044000
     14 C2          -0.0140     0.0080     2.3950 ca         1 4SA      -0.115500
     15 O1           3.6410    -2.2500    10.2340 os         1 4SA      -0.432900
     16 C15          5.5740    -3.6590    10.6890 c3         1 4SA      -0.106433
     17 C16          3.5740    -3.7050    12.1850 c3         1 4SA      -0.106433
     18 O2           5.4520    -1.2150     9.4790 o          1 4SA      -0.617000
     19 C17          4.2940     1.4020     7.9480 c          1 4SA       0.658100
     20 O3           3.8070     1.6410     9.0330 o          1 4SA      -0.558100
     21 O4           4.9160     3.7060     7.7610 oh         1 4SA      -0.360100
     22 C18          2.1150     0.0090     6.0870 ca         1 4SA      -0.115000
     23 C19          1.4230     0.0050     4.8940 ca         1 4SA      -0.115500
     24 H1          -0.5400    -0.0000    -0.9390 ha         1 4SA       0.132000
     25 H2           4.3370    -0.8820    12.2220 hc         1 4SA       0.050367
     26 H3           5.2930    -2.0660    13.1250 hc         1 4SA       0.050367
     27 H4           5.9540    -1.3280    11.6600 hc         1 4SA       0.050367
     28 H5           1.9240    -0.0030    -0.9390 ha         1 4SA       0.132500
     29 H6           3.1600     0.0000     1.1920 ha         1 4SA       0.133000
     30 H7           5.2600    -0.3530     7.2300 h1         1 4SA       0.100700
     31 H8           4.0590    -0.0100     2.7580 ha         1 4SA       0.140000
     32 H9           5.2790    -0.0100     4.8980 ha         1 4SA       0.136000
     33 H10          2.5940    -1.0690     8.2450 hn         1 4SA       0.333500
     34 H11          5.3050     2.1880     6.3580 hn         1 4SA       0.319500
     35 H12         -1.7790     0.0100     1.1890 ha         1 4SA       0.132500
     36 H13         -0.5600     0.0110     3.3300 ha         1 4SA       0.133000
     37 H14          5.2020    -4.1850     9.8170 hc         1 4SA       0.050367
     38 H15          6.3920    -3.0110    10.3980 hc         1 4SA       0.050367
     39 H16          5.9250    -4.3770    11.4200 hc         1 4SA       0.050367
     40 H17          2.7770    -3.1110    12.6140 hc         1 4SA       0.050367
     41 H18          3.1480    -4.5050    11.5910 hc         1 4SA       0.050367
     42 H19          4.1770    -4.1280    12.9800 hc         1 4SA       0.050367
     43 H20          5.5500     4.2150     7.2820 ho         1 4SA       0.397000
     44 H21          1.5740     0.0110     7.0260 ha         1 4SA       0.136000
     45 H22          0.3390     0.0100     4.8950 ha         1 4SA       0.140000
     46 C12          4.2640    -1.4400     9.3580 c          1 4SA       0.767100
     47 N2           4.8750     2.3910     7.2390 ns         1 4SA      -0.468400
@<TRIPOS>BOND
     1    17    10 1
     2    16    10 1
     3    10     2 1
     4    10    15 1
     5    21    47 1
     6    15    46 1
     7    47    19 1
     8    20    19 2
     9    18    46 2
    10    19     5 1
    11    46    11 1
    12    11     5 1
    13     5     9 1
    14     9     8 ar
    15     9    22 ar
    16     8     7 ar
    17    22    23 ar
    18     7     6 ar
    19    23     6 ar
    20     6    13 1
    21    13    14 ar
    22    13     4 ar
    23    14    12 ar
    24     4     3 ar
    25     3     1 ar
    26    12     1 ar
    27     1    24 1
    28     2    25 1
    29     2    26 1
    30     2    27 1
    31     3    28 1
    32     4    29 1
    33     5    30 1
    34     7    31 1
    35     8    32 1
    36    11    33 1
    37    47    34 1
    38    12    35 1
    39    14    36 1
    40    16    37 1
    41    16    38 1
    42    16    39 1
    43    17    40 1
    44    17    41 1
    45    17    42 1
    46    21    43 1
    47    22    44 1
    48    23    45 1
@<TRIPOS>SUBSTRUCTURE
     1 4SA         1 TEMP              0 ****  ****    0 ROOT
