@<TRIPOS>MOLECULE
molecule
   42    43     1     0     0
SMALL
bcc


@<TRIPOS>ATOM
      1 C            0.0000     0.0000     0.0000 c3         1 4SB       0.092800
      2 N            1.4690     0.0000     0.0000 nz         1 4SB      -0.811600
      3 O           -5.7170    -3.3320    10.2830 oh         1 4SB      -0.504100
      4 Br          -5.4360    -0.4010     9.5010 br         1 4SB      -0.057100
      5 C01         -4.0700    -2.9440     6.5150 ca         1 4SB      -0.182900
      6 N01         -3.2850    -1.6260     4.6660 n2         1 4SB      -0.420300
      7 C02         -3.4820    -2.8060     5.1700 ce         1 4SB       0.415800
      8 N02         -2.7280    -1.4950     3.3880 ns         1 4SB      -0.353900
      9 C03         -2.5230    -0.2700     2.8640 c          1 4SB       0.675100
     10 C04         -2.0330    -0.1290     1.4460 c3         1 4SB      -0.080400
     11 C05         -2.6430     1.1010     0.8240 ca         1 4SB      -0.110300
     12 C06         -4.2830    -4.2130     7.0600 ca         1 4SB      -0.083000
     13 C07         -4.8320    -4.3370     8.3190 ca         1 4SB      -0.139000
     14 C08         -5.1750    -3.2040     9.0440 ca         1 4SB       0.159100
     15 C09         -4.9660    -1.9400     8.5060 ca         1 4SB      -0.052900
     16 C10         -4.4100    -1.8060     7.2510 ca         1 4SB      -0.050000
     17 C11         -2.4070     2.3460     1.3790 ca         1 4SB      -0.122500
     18 C12         -2.9660     3.4740     0.8090 ca         1 4SB      -0.128500
     19 C13         -3.7600     3.3580    -0.3170 ca         1 4SB      -0.104000
     20 C14         -3.9950     2.1140    -0.8720 ca         1 4SB      -0.128500
     21 C15         -3.4330     0.9870    -0.3050 ca         1 4SB      -0.122500
     22 C16         -0.5090     0.0000     1.4430 c3         1 4SB      -0.099400
     23 H           -0.3610    -0.8850    -0.5100 hx         1 4SB       0.118200
     24 HA          -0.3610     0.8850    -0.5110 hx         1 4SB       0.118200
     25 HN           1.8030     0.7730     0.5410 hn         1 4SB       0.457467
     26 HNA          1.8030     0.0820    -0.9400 hn         1 4SB       0.457467
     27 HO          -5.0290    -3.4510    10.9160 ho         1 4SB       0.434000
     28 H02         -3.2150    -3.6890     4.6020 h4         1 4SB      -0.012200
     29 HN02        -2.4870    -2.3110     2.8610 hn         1 4SB       0.290500
     30 H04         -2.3220    -1.0030     0.8760 hc         1 4SB       0.068700
     31 H06         -4.0690    -4.8330     6.1980 ha         1 4SB       0.143000
     32 H07         -4.9980    -5.3210     8.7410 ha         1 4SB       0.156000
     33 H10         -4.2850    -0.8220     6.8160 ha         1 4SB       0.171000
     34 H11         -1.8040     2.4340     2.2740 ha         1 4SB       0.147500
     35 H12         -2.8010     4.4460     1.2580 ha         1 4SB       0.146500
     36 H13         -4.1890     4.2430    -0.7710 ha         1 4SB       0.146000
     37 H14         -4.6210     2.0230    -1.7520 ha         1 4SB       0.146500
     38 H15         -3.8810     0.1580    -0.8400 ha         1 4SB       0.147500
     39 H16         -0.0750    -0.8360     1.9790 hc         1 4SB       0.072700
     40 H16A        -0.2240     0.9260     1.9270 hc         1 4SB       0.072700
     41 HN3          1.8030    -0.8430     0.4240 hn         1 4SB       0.457467
     42 O01         -2.7330     0.7200     3.5340 o          1 4SB      -0.529100
@<TRIPOS>BOND
     1    22     1 1
     2     1     2 1
     3     1    23 1
     4     1    24 1
     5     2    25 1
     6     2    26 1
     7     3    14 1
     8     3    27 1
     9     4    15 1
    10    16     5 ar
    11     5     7 1
    12     5    12 ar
    13     7     6 2
    14     8     6 1
    15     9    42 2
    16     7    28 1
    17     8     9 1
    18     8    29 1
    19    10     9 1
    20    22    10 1
    21    10    11 1
    22    10    30 1
    23    17    11 ar
    24    11    21 ar
    25    13    12 ar
    26    12    31 1
    27    14    13 ar
    28    13    32 1
    29    15    14 ar
    30    15    16 ar
    31    16    33 1
    32    17    18 ar
    33    17    34 1
    34    18    19 ar
    35    18    35 1
    36    19    20 ar
    37    19    36 1
    38    21    20 ar
    39    20    37 1
    40    21    38 1
    41    22    39 1
    42    22    40 1
    43    41     2 1
@<TRIPOS>SUBSTRUCTURE
     1 4SB         1 TEMP              0 ****  ****    0 ROOT
