@<TRIPOS>MOLECULE
4SB
   42    44     1     0     0
SMALL
bcc


@<TRIPOS>ATOM
      1 C            0.0000     0.0000     0.0000 c3         1 4SB      -0.295000
      2 N            1.4690     0.0000     0.0000 nz         1 4SB       0.859000
      3 O           -5.7170    -3.3320    10.2830 oh         1 4SB      -0.237000
      4 Br          -5.4360    -0.4010     9.5010 br         1 4SB       0.072000
      5 C01         -4.0700    -2.9440     6.5150 c3         1 4SB      -0.187000
      6 N01         -3.2850    -1.6260     4.6660 n2         1 4SB      -0.008000
      7 C02         -3.4820    -2.8060     5.1700 c2         1 4SB      -0.451000
      8 N02         -2.7280    -1.4950     3.3880 ns         1 4SB       0.094000
      9 C03         -2.5230    -0.2700     2.8640 c2         1 4SB       0.210000
     10 C04         -2.0330    -0.1290     1.4460 c3         1 4SB      -0.043000
     11 C05         -2.6430     1.1010     0.8240 ca         1 4SB      -0.107000
     12 C06         -4.2830    -4.2130     7.0600 c2         1 4SB      -0.008000
     13 C07         -4.8320    -4.3370     8.3190 c2         1 4SB      -0.136000
     14 C08         -5.1750    -3.2040     9.0440 c2         1 4SB       0.165000
     15 C09         -4.9660    -1.9400     8.5060 c2         1 4SB      -0.180000
     16 C10         -4.4100    -1.8060     7.2510 c2         1 4SB      -0.043000
     17 C11         -2.4070     2.3460     1.3790 ca         1 4SB      -0.102500
     18 C12         -2.9660     3.4740     0.8090 ca         1 4SB      -0.099000
     19 C13         -3.7600     3.3580    -0.3170 ca         1 4SB      -0.076000
     20 C14         -3.9950     2.1140    -0.8720 ca         1 4SB      -0.099000
     21 C15         -3.4330     0.9870    -0.3050 ca         1 4SB      -0.102500
     22 C16         -0.5090     0.0000     1.4430 c3         1 4SB      -0.105000
     23 H           -0.3610     0.8850    -0.5110 hx         1 4SB       0.132000
     24 HA          -0.3610    -0.8850    -0.5100 hx         1 4SB       0.132000
     25 HN           1.8030     0.0820    -0.9400 hn         1 4SB       0.018333
     26 HNA          1.8030     0.7730     0.5410 hn         1 4SB       0.018333
     27 HO          -5.0290    -3.4530    10.9160 ho         1 4SB       0.218000
     28 H02         -2.9350    -2.6630     6.0940 DU         1 4SB       0.341000
     29 HN02        -2.4900    -2.3110     2.8600 hn         1 4SB       0.076000
     30 H04         -2.3220    -1.0030     0.8760 hc         1 4SB       0.083000
     31 H06         -4.0690    -4.8330     6.1980 ha         1 4SB       0.153000
     32 H07         -4.9980    -5.3210     8.7410 ha         1 4SB       0.131000
     33 H10         -4.2890    -0.8220     6.8140 ha         1 4SB       0.143000
     34 H11         -1.8030     2.4340     2.2740 ha         1 4SB       0.124000
     35 H12         -2.8010     4.4460     1.2570 ha         1 4SB       0.115500
     36 H13         -4.1940     4.2430    -0.7680 ha         1 4SB       0.115000
     37 H14         -4.6200     2.0230    -1.7520 ha         1 4SB       0.115500
     38 H15         -3.8810     0.1580    -0.8390 ha         1 4SB       0.124000
     39 H16         -0.0750    -0.8360     1.9790 hc         1 4SB       0.078500
     40 H16A        -0.2240     0.9260     1.9270 hc         1 4SB       0.078500
     41 HN3          1.8030    -0.8430     0.4240 hn         1 4SB       0.018333
     42 O01         -2.7330     0.7200     3.5340 o          1 4SB      -0.336000
@<TRIPOS>BOND
     1     1     2 1   
     2     1    22 1   
     3     1    23 1   
     4     1    24 1   
     5     2    25 1   
     6     2    26 1   
     7     2    41 1   
     8     3    14 1   
     9     3    27 1   
    10     4    15 1   
    11     5     7 1   
    12     5    12 1   
    13     5    16 1   
    14     5    28 1   
    15     6     7 1   
    16     6     8 1   
    17     7    28 1   
    18     8     9 1   
    19     8    29 1   
    20     9    10 1   
    21     9    42 1   
    22    10    11 1   
    23    10    22 1   
    24    10    30 1   
    25    11    17 1   
    26    11    21 1   
    27    12    13 1   
    28    12    31 1   
    29    13    14 1   
    30    13    32 1   
    31    14    15 1   
    32    15    16 1   
    33    16    33 1   
    34    17    18 1   
    35    17    34 1   
    36    18    19 1   
    37    18    35 1   
    38    19    20 1   
    39    19    36 1   
    40    20    21 1   
    41    20    37 1   
    42    21    38 1   
    43    22    39 1   
    44    22    40 1   
@<TRIPOS>SUBSTRUCTURE
     1 4SB         1 TEMP              0 ****  ****    0 ROOT
