@<TRIPOS>MOLECULE
molecule
   14    13     1     0     0
SMALL
bcc


@<TRIPOS>ATOM
      1 C1           0.0000     0.0000     0.0000 c3         1 4SD      -0.231900
      2 C2           1.5300     0.0000     0.0000 c3         1 4SD      -0.034300
      3 C5          -1.9760    -0.1210     1.4450 c1         1 4SD       0.186200
      4 C4          -0.5090     0.0000     1.4430 c3         1 4SD      -0.034300
      5 C3           2.0210    -0.1210    -1.3820 c1         1 4SD       0.186200
      6 N2          -3.1070    -0.2320     1.4370 n1         1 4SD      -0.358300
      7 O1          -0.4770     1.1660    -0.6740 oh         1 4SD      -0.444800
      8 N1           2.2470    -0.2760    -2.6110 n1         1 4SD      -0.358300
      9 H1          -0.4040     0.7750    -0.6400 h1         1 4SD       0.324700
     10 H2           2.0280    -0.8500     0.4510 hc         1 4SD       0.076950
     11 H3           1.9230     0.8500     0.5450 hc         1 4SD       0.076950
     12 H4          -0.3280     0.9030     2.0120 hc         1 4SD       0.076950
     13 H5          -0.3110    -0.8230     2.1190 hc         1 4SD       0.076950
     14 H6          -0.8990     1.4730     0.1110 ho         1 4SD       0.458000
@<TRIPOS>BOND
     1     2     5 1   
     2     2     1 1   
     3     7     1 1   
     4     5     8 3   
     5     1     4 1   
     6     4     3 1   
     7     3     6 3   
     8     1     9 1   
     9     2    10 1   
    10     2    11 1   
    11     4    12 1   
    12     4    13 1   
    13     7    14 1   
@<TRIPOS>SUBSTRUCTURE
     1 4SD         1 TEMP              0 ****  ****    0 ROOT
