@<TRIPOS>MOLECULE
4SO
   20    20     1     0     0
SMALL
bcc


@<TRIPOS>ATOM
      1 OAA          0.0000     0.0000     0.0000 o          1 4SO      -0.515300
      2 OAB          2.2870     6.3200    -2.3060 o          1 4SO      -0.834300
      3 CAC          3.5640     2.8710    -1.8140 ca         1 4SO      -0.085500
      4 CAD          3.1690     1.6660    -1.2720 ca         1 4SO      -0.031000
      5 CAE          1.9180     1.5420    -0.6910 ca         1 4SO      -0.239500
      6 SAF          1.4210     0.0000     0.0000 sy         1 4SO       0.907200
      7 NAG          1.8890     0.0000     1.5890 nz         1 4SO      -0.138500
      8 CAI          2.7030     3.9690    -1.7710 ca         1 4SO       0.020400
      9 CAJ          1.4460     3.8390    -1.1780 ca         1 4SO      -0.085500
     10 CAK          1.0580     2.6250    -0.6500 ca         1 4SO      -0.031000
     11 OAL          2.1990    -0.9990    -0.6470 o          1 4SO      -0.515300
     12 OAM          4.2150     5.3730    -2.8640 o          1 4SO      -0.834300
     13 HAC          4.5430     2.9660    -2.2680 ha         1 4SO       0.152000
     14 HAD          3.8360     0.8130    -1.3040 ha         1 4SO       0.108000
     15 HNAG         1.4450     0.7580     2.0670 hn         1 4SO       0.307467
     16 HNAA         2.8830     0.1070     1.6440 hn         1 4SO       0.307467
     17 HAJ          0.7720     4.6860    -1.1430 ha         1 4SO       0.152000
     18 HAK          0.0820     2.5220    -0.1920 ha         1 4SO       0.108000
     19 CAH          3.1200     5.2630    -2.3490 c          1 4SO       0.940200
     20 HAG3         1.6640    -0.8830     2.0030 hn         1 4SO       0.307467
@<TRIPOS>BOND
     1     1     6 2   
     2     2    19 1   
     3     3     4 ar  
     4     3     8 ar  
     5     3    13 1   
     6     4     5 ar  
     7     4    14 1   
     8     5     6 1   
     9     5    10 ar  
    10     6     7 1   
    11     6    11 2   
    12     7    15 1   
    13     7    16 1   
    14     7    20 1   
    15     8     9 ar  
    16     8    19 1   
    17     9    10 ar  
    18     9    17 1   
    19    10    18 1   
    20    12    19 1   
@<TRIPOS>SUBSTRUCTURE
     1 4SO         1 TEMP              0 ****  ****    0 ROOT
