@<TRIPOS>MOLECULE
4SP
   50    50     1     0     0
SMALL
bcc


@<TRIPOS>ATOM
      1 C2          0.0760    2.2120    0.3420 ca        1 4SP      0.901900
      2 C8          0.5180    0.6460    5.0300 c1        1 4SP      0.303600
      3 C10         3.7630   -0.6660   -1.3810 cx        1 4SP     -0.161400
      4 C11         5.0900   -0.9030   -2.0520 cx        1 4SP     -0.113700
      5 C12         5.9040    0.2710   -2.5020 c3        1 4SP     -0.052900
      6 C13         6.8140    0.8100   -1.4150 c3        1 4SP     -0.076400
      7 C14         6.0740    0.9850   -0.1060 c3        1 4SP     -0.076400
      8 C15         5.6080   -0.3490    0.4430 c3        1 4SP     -0.052900
      9 C16         4.9210   -1.1970   -0.5790 cx        1 4SP     -0.113700
     10 C19         5.4520   -3.3510   -4.7240 c1        1 4SP     -0.175500
     11 C20         1.5450    0.0210   -4.4790 ce        1 4SP     -0.511100
     12 C21         0.6850    1.0430   -4.3320 cf        1 4SP      0.206300
     13 C22         0.3250    1.6050   -3.1090 ch        1 4SP     -0.212300
     14 N26         1.0390   -1.9200   -6.0840 n3        1 4SP     -1.028700
     15 N1          1.0620    1.2450    0.3760 nb        1 4SP     -0.778000
     16 C6          1.4650    0.8530    1.6080 ca        1 4SP      0.672600
     17 O6          2.4410   -0.1000    1.7260 oh        1 4SP     -0.623300
     18 C5          0.9330    1.3950    2.8240 ca        1 4SP     -0.187000
     19 N7          1.4410    1.0580    4.1020 nh        1 4SP     -0.471200
     20 N9         -0.2390    0.3740    5.8770 n1        1 4SP     -0.370800
     21 C4         -0.0760    2.3780    2.6510 ca        1 4SP      0.486200
     22 N3         -0.5150    2.7930    1.4570 nb        1 4SP     -0.737000
     23 N2         -0.3730    2.6750   -0.9160 nh        1 4SP     -0.619500
     24 C17        -0.0080    2.1060   -2.0640 c1        1 4SP      0.076800
     25 C18         6.0130   -4.2980   -4.2550 c1        1 4SP     -0.175500
     26 O24         3.3440   -1.1250   -5.7790 o         1 4SP     -0.669800
     27 O25         1.7590    0.2600   -6.9650 o         1 4SP     -0.669800
     28 H8          2.2300    0.4310    4.0520 hn        1 4SP      0.439800
     29 H101        2.7760   -0.3570    0.8430 ho        1 4SP      0.474000
     30 H102        3.4260    0.3750   -1.2260 hc        1 4SP      0.070200
     31 H11         2.9210   -1.3440   -1.6110 hc        1 4SP      0.070200
     32 H121        5.1680   -1.7700   -2.7430 hc        1 4SP      0.084700
     33 H122        6.5280   -0.0250   -3.3860 hc        1 4SP      0.044700
     34 H131        5.2120    1.0860   -2.8460 hc        1 4SP      0.044700
     35 H132        7.2360    1.7960   -1.7440 hc        1 4SP      0.040700
     36 H141        7.6760    0.1080   -1.2640 hc        1 4SP      0.040700
     37 H142        6.7450    1.4780    0.6440 hc        1 4SP      0.040700
     38 H151        5.1920    1.6600   -0.2630 hc        1 4SP      0.040700
     39 H152        4.9170   -0.1750    1.3120 hc        1 4SP      0.044700
     40 H161        6.4970   -0.9130    0.8340 hc        1 4SP      0.044700
     41 H162        4.8790   -2.2640   -0.2750 hc        1 4SP      0.084700
     42 H19         4.9530   -2.5080   -5.1490 ha        1 4SP      0.175500
     43 H21         2.0240   -0.3930   -3.5700 h4        1 4SP      0.187000
     44 H22         0.2080    1.5110   -5.2220 ha        1 4SP      0.156000
     45 H261        0.1850   -1.8890   -6.5810 hn        1 4SP      0.447300
     46 H262        1.2410   -2.8200   -5.7280 hn        1 4SP      0.447300
     47 H9         -0.5610    2.8530    3.5270 h4        1 4SP      0.054100
     48 H2         -1.0940    3.3680   -0.9330 hn        1 4SP      0.485800
     49 H18         6.5120   -5.1360   -3.8400 ha        1 4SP      0.175500
     50 S23         2.0170   -0.6600   -5.9240 sy        1 4SP      1.535800
@<TRIPOS>BOND
     1    1   15 ar
     2    1   22 ar
     3    1   23 1
     4    2   19 1
     5    2   20 3
     6    3    4 1
     7    3    9 1
     8    3   30 1
     9    3   31 1
    10    4    5 1
    11    4    9 1
    12    4   32 1
    13    5    6 1
    14    5   33 1
    15    5   34 1
    16    6    7 1
    17    6   35 1
    18    6   36 1
    19    7    8 1
    20    7   37 1
    21    7   38 1
    22    8    9 1
    23    8   39 1
    24    8   40 1
    25    9   41 1
    26   10   25 3
    27   10   42 1
    28   11   12 2
    29   11   43 1
    30   11   50 1
    31   12   13 1
    32   12   44 1
    33   13   24 3
    34   14   45 1
    35   14   46 1
    36   14   50 1
    37   15   16 ar
    38   16   17 1
    39   16   18 ar
    40   17   29 1
    41   18   19 1
    42   18   21 ar
    43   19   28 1
    44   21   22 ar
    45   21   47 1
    46   23   24 1
    47   23   48 1
    48   25   49 1
    49   26   50 2
    50   27   50 2
@<TRIPOS>SUBSTRUCTURE
     1 4SP         1 TEMP              0 ****  ****    0 ROOT
