@<TRIPOS>MOLECULE
4SQ
   33    32     1     0     0
SMALL
bcc


@<TRIPOS>ATOM
      1 C4           0.0000     0.0000     0.0000 c          1 4SQ       0.973600
      2 N1         -12.1680     2.3870    -4.0110 nz         1 4SQ       0.113400
      3 N2          -9.4620    -0.1270    -4.0780 ns         1 4SQ       0.044100
      4 C3          -3.0720     0.0110    -2.0600 c          1 4SQ       0.546100
      5 O42          1.3420     0.0000     0.0000 o          1 4SQ      -0.900800
      6 O41         -0.6040     0.0000     1.0470 o          1 4SQ      -0.900800
      7 CA4         -0.7540     0.0070    -1.3040 c3         1 4SQ      -0.067000
      8 N4          -2.1950     0.0060    -1.0360 ns         1 4SQ      -0.167900
      9 O3          -2.6680     0.0180    -3.2040 o          1 4SQ      -0.716100
     10 CA3         -4.5520     0.0110    -1.7830 c3         1 4SQ      -0.056400
     11 CN3         -5.3190     0.0180    -3.1080 c3         1 4SQ      -0.001600
     12 P           -7.1100     0.0160    -2.7740 p5         1 4SQ       0.349400
     13 OP1         -7.4490    -1.1320    -1.9030 o          1 4SQ      -0.632000
     14 OP2         -7.5210     1.3880    -2.0380 o          1 4SQ      -0.632000
     15 CA2         -8.0220    -0.1260    -4.3460 c3         1 4SQ      -0.038200
     16 C1         -10.1610     1.0240    -4.1480 c          1 4SQ       0.487100
     17 O1          -9.5990     2.0590    -4.4330 o          1 4SQ      -0.662100
     18 CA1        -11.6430     1.0220    -3.8710 c3         1 4SQ      -0.138200
     19 H1         -11.7340     2.9820    -3.3330 hn         1 4SQ       0.217800
     20 H2         -13.1580     2.3810    -3.8640 hn         1 4SQ       0.217800
     21 H4          -9.9340    -0.9870    -3.8810 hn         1 4SQ       0.148500
     22 H6          -0.4930     0.8940    -1.8680 h1         1 4SQ       0.017700
     23 H7          -0.4940    -0.8750    -1.8770 h1         1 4SQ       0.017700
     24 H8          -2.5280    -0.0010    -0.0920 hn         1 4SQ       0.196500
     25 H9          -4.8140    -0.8770    -1.2200 hc         1 4SQ       0.035700
     26 H10         -4.8130     0.8920    -1.2100 hc         1 4SQ       0.035700
     27 H11         -5.0570    -0.8630    -3.6810 hc         1 4SQ       0.025200
     28 H12         -5.0580     0.9060    -3.6710 hc         1 4SQ       0.025200
     29 H14         -7.7740     0.7140    -4.9840 h1         1 4SQ       0.045700
     30 H15         -7.7460    -1.0490    -4.8410 h1         1 4SQ       0.045700
     31 H16        -11.8220     0.6670    -2.8640 hx         1 4SQ       0.077200
     32 H17        -12.1410     0.3700    -4.5780 hx         1 4SQ       0.077200
     33 H13        -11.9690     2.7290    -4.9300 hn         1 4SQ       0.217800
@<TRIPOS>BOND
     1     1     5 1   
     2     1     6 1   
     3     1     7 1   
     4     2    18 1   
     5     2    19 1   
     6     2    20 1   
     7     2    33 1   
     8     3    15 1   
     9     3    16 1   
    10     3    21 1   
    11     4     8 1   
    12     4     9 2   
    13     4    10 1   
    14     7     8 1   
    15     7    22 1   
    16     7    23 1   
    17     8    24 1   
    18    10    11 1   
    19    10    25 1   
    20    10    26 1   
    21    11    12 1   
    22    11    27 1   
    23    11    28 1   
    24    12    13 1   
    25    12    14 1   
    26    12    15 1   
    27    15    29 1   
    28    15    30 1   
    29    16    17 2   
    30    16    18 1   
    31    18    31 1   
    32    18    32 1   
@<TRIPOS>SUBSTRUCTURE
     1 4SQ         1 TEMP              0 ****  ****    0 ROOT
