@<TRIPOS>MOLECULE
molecule
   41    43     1     0     0
SMALL
bcc


@<TRIPOS>ATOM
      1 O15          0.0000     0.0000     0.0000 o          1 4SR      -0.630500
      2 C14          1.2130     0.0000     0.0000 c          1 4SR       0.698500
      3 C16          2.0800     0.0000     1.2410 c3         1 4SR      -0.165400
      4 C11          3.4760    -0.4200     0.7270 c3         1 4SR      -0.036400
      5 C12          3.4080     0.0070    -0.7560 c3         1 4SR       0.099000
      6 N13          1.9830    -0.0020    -1.1010 ns         1 4SR      -0.593900
      7 C10          4.5650     0.3250     1.4550 ca         1 4SR      -0.083300
      8 C17          4.5600     1.7070     1.4740 ca         1 4SR      -0.126000
      9 C18          5.5570     2.3950     2.1400 ca         1 4SR      -0.190000
     10 C1           6.5640     1.6990     2.7910 ca         1 4SR       0.095100
     11 O19          7.5440     2.3750     3.4470 os         1 4SR      -0.280900
     12 C20          7.2660     3.7670     3.2860 c3         1 4SR       0.103700
     13 C2           6.5720     0.3080     2.7660 ca         1 4SR       0.103100
     14 C9           5.5670    -0.3750     2.1010 ca         1 4SR      -0.191000
     15 O3           7.5580    -0.3790     3.4020 os         1 4SR      -0.275900
     16 C4           7.3740    -1.7580     3.0790 c3         1 4SR       0.108100
     17 C5           8.6930    -2.5270     3.2800 c3         1 4SR      -0.096400
     18 C6           8.4180    -3.6020     4.3520 c3         1 4SR      -0.083900
     19 C7           6.8860    -3.8230     4.2830 c3         1 4SR      -0.083900
     20 C8           6.3440    -2.3940     4.0360 c3         1 4SR      -0.096400
     21 H161         1.7090    -0.7200     1.9600 hc         1 4SR       0.081700
     22 H162         2.1190     0.9920     1.6740 hc         1 4SR       0.081700
     23 H11          3.6090    -1.4920     0.8110 hc         1 4SR       0.069700
     24 H121         3.9460    -0.7020    -1.3740 h1         1 4SR       0.050200
     25 H122         3.8160     1.0030    -0.8770 h1         1 4SR       0.050200
     26 H13          1.6280    -0.0090    -2.0370 hn         1 4SR       0.337500
     27 H17          3.7740     2.2520     0.9660 ha         1 4SR       0.135000
     28 H18          5.5510     3.4780     2.1540 ha         1 4SR       0.148000
     29 H201         7.2660     4.0160     2.2320 h1         1 4SR       0.043700
     30 H202         8.0250     4.3480     3.7950 h1         1 4SR       0.043700
     31 H203         6.2950     3.9930     3.7100 h1         1 4SR       0.043700
     32 H9           5.5710    -1.4590     2.0800 ha         1 4SR       0.156000
     33 H4           7.0390    -1.8630     2.0540 h1         1 4SR       0.058700
     34 H51          8.9910    -2.9990     2.3510 hc         1 4SR       0.058200
     35 H52          9.4660    -1.8510     3.6240 hc         1 4SR       0.058200
     36 H61          8.9430    -4.5180     4.1120 hc         1 4SR       0.048450
     37 H62          8.7030    -3.2390     5.3320 hc         1 4SR       0.048450
     38 H71          6.6310    -4.4760     3.4570 hc         1 4SR       0.048450
     39 H72          6.5130    -4.2160     5.2210 hc         1 4SR       0.048450
     40 H81          6.3020    -1.8400     4.9660 hc         1 4SR       0.058200
     41 H82          5.3690    -2.4350     3.5670 hc         1 4SR       0.058200
@<TRIPOS>BOND
     1     1     2 2
     2     2     3 1
     3     2     6 1
     4     3     4 1
     5     3    21 1
     6     3    22 1
     7     4     5 1
     8     4     7 1
     9     4    23 1
    10     5     6 1
    11     5    24 1
    12     5    25 1
    13     6    26 1
    14     7     8 ar
    15     7    14 ar
    16     8     9 ar
    17     8    27 1
    18     9    10 ar
    19     9    28 1
    20    10    11 1
    21    10    13 ar
    22    11    12 1
    23    12    29 1
    24    12    30 1
    25    12    31 1
    26    13    14 ar
    27    13    15 1
    28    14    32 1
    29    15    16 1
    30    16    17 1
    31    16    20 1
    32    16    33 1
    33    17    18 1
    34    17    34 1
    35    17    35 1
    36    18    19 1
    37    18    36 1
    38    18    37 1
    39    19    20 1
    40    19    38 1
    41    19    39 1
    42    20    40 1
    43    20    41 1
@<TRIPOS>SUBSTRUCTURE
     1 4SR         1 TEMP              0 ****  ****    0 ROOT
