@<TRIPOS>MOLECULE
4SS
   66    70     1     0     0
SMALL
bcc


@<TRIPOS>ATOM
      1 C2           0.0000     0.0000     0.0000 ca         1 4SS      -0.031600
      2 C3           1.3840     0.0000     0.0000 ca         1 4SS      -0.095000
      3 C44          1.9360    -2.3360     4.4100 ca         1 4SS      -0.121400
      4 C45          3.0880    -2.8180     5.0270 ca         1 4SS       0.168100
      5 C46          3.4570    -4.1430     4.8600 ca         1 4SS      -0.207000
      6 C48          2.6820    -4.9830     4.0820 ca         1 4SS      -0.029300
      7 C49          1.5390    -4.5040     3.4680 ca         1 4SS      -0.133000
      8 C51          1.1650    -3.1840     3.6300 ca         1 4SS      -0.034000
      9 C53          3.0860    -6.4230     3.8990 c3         1 4SS       0.057200
     10 C58          5.0730    -2.5230     6.3050 c3         1 4SS       0.206100
     11 C12          2.1390    -0.0000     3.6990 c3         1 4SS       0.148300
     12 C15          0.6790    -0.7090     5.5430 c          1 4SS       0.608500
     13 C16          0.2130     0.6860     5.8250 c3         1 4SS      -0.030100
     14 C19          1.1840     1.7020     5.2870 ca         1 4SS      -0.082300
     15 C20          2.0840     1.3790     4.2940 ca         1 4SS      -0.105300
     16 C21          2.9660     2.3410     3.8220 ca         1 4SS      -0.170000
     17 C23          2.9470     3.6220     4.3410 ca         1 4SS       0.125100
     18 C24          2.0380     3.9480     5.3440 ca         1 4SS       0.137100
     19 C25          1.1610     2.9850     5.8120 ca         1 4SS      -0.179000
     20 C28          1.0530     5.4650     6.8880 c3         1 4SS       0.199400
     21 Cl1         -0.8690    -0.0080    -1.5020 cl         1 4SS      -0.020400
     22 C5           2.0750     0.0000     1.1970 ca         1 4SS      -0.081000
     23 C7           1.3840     0.0010     2.3940 ca         1 4SS      -0.116300
     24 C8           0.0020     0.0000     2.3950 ca         1 4SS      -0.081000
     25 C10         -0.6900     0.0000     1.1990 ca         1 4SS      -0.095000
     26 N14          1.5570    -0.9980     4.5800 n          1 4SS       0.005000
     27 O27          2.0120     5.2050     5.8620 os         1 4SS      -0.287900
     28 C31          1.1740     6.9210     7.3420 c3         1 4SS       0.001900
     29 O35          3.8150     4.5610     3.8750 os         1 4SS      -0.287900
     30 C36          4.7190     4.1530     2.8460 c3         1 4SS       0.199400
     31 C39          5.6090     5.3350     2.4540 c3         1 4SS       0.001900
     32 O43          0.2410    -1.6150     6.2200 o          1 4SS      -0.677500
     33 O57          3.8500    -1.9910     5.7920 os         1 4SS      -0.333900
     34 C61          5.7350    -1.4990     7.1900 cc         1 4SS       0.127800
     35 N62          5.3260    -0.2340     7.4000 na         1 4SS       0.422600
     36 N63          6.1650     0.3040     8.2190 nc         1 4SS      -0.397800
     37 N65          7.0660    -0.5640     8.5210 nd         1 4SS      -0.024000
     38 N66          6.8180    -1.6690     7.9080 nd         1 4SS      -0.340000
     39 H1           1.9250    -0.0010    -0.9380 ha         1 4SS       0.116500
     40 H2           4.3510    -4.5220     5.3390 ha         1 4SS       0.127000
     41 H3           0.9350    -5.1660     2.8590 ha         1 4SS       0.114000
     42 H4           0.2690    -2.8120     3.1480 ha         1 4SS       0.116000
     43 H5           4.1630    -6.4870     3.8000 hc         1 4SS       0.011700
     44 H6           2.7680    -6.9990     4.7600 hc         1 4SS       0.011700
     45 H7           2.6170    -6.8200     3.0070 hc         1 4SS       0.011700
     46 H8           5.7330    -2.7700     5.4820 h1         1 4SS       0.028700
     47 H9           4.8640    -3.4170     6.8800 h1         1 4SS       0.028700
     48 H10          3.1740    -0.2590     3.5120 h1         1 4SS       0.042700
     49 H11         -0.7430     0.8340     5.3360 hc         1 4SS       0.050700
     50 H12          0.1420     0.8140     6.8980 hc         1 4SS       0.050700
     51 H13          3.6730     2.0860     3.0420 ha         1 4SS       0.127000
     52 H14          0.4520     3.2360     6.5920 ha         1 4SS       0.130000
     53 H15          0.0560     5.2890     6.5030 h1         1 4SS      -0.000800
     54 H16          1.2370     4.8080     7.7290 h1         1 4SS      -0.000800
     55 H17          3.1580    -0.0000     1.1960 ha         1 4SS       0.111500
     56 H18         -0.5390     0.0000     3.3340 ha         1 4SS       0.111500
     57 H19         -1.7730    -0.0000     1.2010 ha         1 4SS       0.116500
     58 H20          1.2170     7.5680     6.4740 hc         1 4SS       0.012700
     59 H21          2.0760     7.0430     7.9290 hc         1 4SS       0.012700
     60 H22          0.3130     7.1840     7.9460 hc         1 4SS       0.012700
     61 H23          4.1560     3.8220     1.9820 h1         1 4SS      -0.002800
     62 H24          5.3360     3.3400     3.2090 h1         1 4SS      -0.002800
     63 H25          5.0050     6.2310     2.3750 hc         1 4SS       0.013033
     64 H26          6.0800     5.1310     1.5000 hc         1 4SS       0.013033
     65 H27          6.3710     5.4780     3.2100 hc         1 4SS       0.013033
     66 H28          4.5220     0.2060     6.9980 hn         1 4SS       0.173700
@<TRIPOS>BOND
     1     1     2 ar  
     2     1    21 1   
     3     1    25 ar  
     4     2    22 ar  
     5     2    39 1   
     6     3     4 ar  
     7     3     8 ar  
     8     3    26 1   
     9     4     5 ar  
    10     4    33 1   
    11     5     6 ar  
    12     5    40 1   
    13     6     7 ar  
    14     6     9 1   
    15     7     8 ar  
    16     7    41 1   
    17     8    42 1   
    18     9    43 1   
    19     9    44 1   
    20     9    45 1   
    21    10    33 1   
    22    10    34 1   
    23    10    46 1   
    24    10    47 1   
    25    11    15 1   
    26    11    23 1   
    27    11    26 1   
    28    11    48 1   
    29    12    13 1   
    30    12    26 1   
    31    12    32 2   
    32    13    14 1   
    33    13    49 1   
    34    13    50 1   
    35    14    15 ar  
    36    14    19 ar  
    37    15    16 ar  
    38    16    17 ar  
    39    16    51 1   
    40    17    18 ar  
    41    17    29 1   
    42    18    19 ar  
    43    18    27 1   
    44    19    52 1   
    45    20    27 1   
    46    20    28 1   
    47    20    53 1   
    48    20    54 1   
    49    22    23 ar  
    50    22    55 1   
    51    23    24 ar  
    52    24    25 ar  
    53    24    56 1   
    54    25    57 1   
    55    28    58 1   
    56    28    59 1   
    57    28    60 1   
    58    29    30 1   
    59    30    31 1   
    60    30    61 1   
    61    30    62 1   
    62    31    63 1   
    63    31    64 1   
    64    31    65 1   
    65    34    35 1   
    66    34    38 2   
    67    35    36 1   
    68    35    66 1   
    69    36    37 2   
    70    37    38 1   
@<TRIPOS>SUBSTRUCTURE
     1 4SS         1 TEMP              0 ****  ****    0 ROOT
