@<TRIPOS>MOLECULE
molecule
   65    72     1     0     0
SMALL
bcc


@<TRIPOS>ATOM
      1 CAB          0.0000     0.0000     0.0000 c3         1 4ST       0.109700
      2 OAQ          1.4290     0.0000     0.0000 os         1 4ST      -0.388600
      3 CBF          1.8420     0.0000     1.3680 c3         1 4ST       0.087100
      4 CBD          2.0210     1.4540     1.8220 c3         1 4ST       0.121500
      5 NAO          3.0080     2.1250     0.9660 n7         1 4ST      -0.790200
      6 CAA          2.7180     3.5640     1.0350 c3         1 4ST       0.137100
      7 CAN          2.5200     1.4340     3.2720 c3         1 4ST      -0.117400
      8 CBE          3.8160     0.6420     3.3500 c3         1 4ST       0.266800
      9 OAR          3.7380    -0.6320     2.7740 os         1 4ST      -0.361600
     10 CBI          3.1790    -0.7180     1.4960 c3         1 4ST       0.284500
     11 CAC          2.8470    -2.1960     1.2850 c3         1 4ST      -0.116100
     12 NBH          4.0900    -0.3620     0.4110 na         1 4ST      -0.078300
     13 CAY          4.1120    -0.8830    -0.8610 ca         1 4ST       0.014800
     14 CAH          3.2970    -1.8410    -1.4620 ca         1 4ST      -0.151000
     15 CAF          3.5740    -2.1710    -2.7790 ca         1 4ST      -0.111000
     16 CAE          4.6090    -1.5830    -3.4830 ca         1 4ST      -0.162000
     17 CAG          5.4320    -0.6280    -2.9100 ca         1 4ST      -0.080000
     18 CAX          5.1690    -0.2830    -1.5840 cp         1 4ST      -0.077000
     19 CBA          5.8140     0.6690    -0.6790 cp         1 4ST      -0.085000
     20 CBC          5.1080     0.5730     0.5270 ca         1 4ST       0.046800
     21 CBB          5.4630     1.3620     1.6220 ca         1 4ST      -0.020200
     22 NBG          4.9460     1.4230     2.8610 na         1 4ST      -0.047400
     23 CAV          5.6230     2.3860     3.5840 cc         1 4ST      -0.088300
     24 CAL          5.3840     2.8180     5.0120 c3         1 4ST      -0.006200
     25 CAJ          6.6360     3.5440     5.5180 c3         1 4ST      -0.075400
     26 CAI          7.0440     4.6200     4.5080 c3         1 4ST      -0.084400
     27 CAK          7.5850     3.9490     3.2410 c3         1 4ST      -0.005200
     28 CAT          6.6020     2.8920     2.7990 cd         1 4ST      -0.107400
     29 CAZ          6.5260     2.2640     1.5390 ca         1 4ST      -0.030800
     30 CAW          7.2640     2.3590     0.2830 ca         1 4ST      -0.143600
     31 CAU          6.8830     1.5550    -0.7900 ca         1 4ST      -0.057300
     32 CAM          7.8230     1.8870    -1.9230 c3         1 4ST       0.143300
     33 NAP          8.7380     2.9120    -1.4090 ns         1 4ST      -0.590900
     34 CAS          8.4080     3.1780    -0.1340 c          1 4ST       0.722100
     35 OAD          8.9780     3.9860     0.5760 o          1 4ST      -0.647500
     36 HAB1        -0.3610    -0.9030     0.4780 h1         1 4ST       0.036700
     37 HAB2        -0.3610     0.8650     0.5430 h1         1 4ST       0.036700
     38 HAB3        -0.3610     0.0370    -1.0210 h1         1 4ST       0.036700
     39 HBF          1.0990    -0.4910     1.9850 h1         1 4ST       0.065700
     40 HBD          1.0700     1.9720     1.7700 h1         1 4ST       0.039700
     41 HNO          2.9010     1.8080     0.0220 hn         1 4ST       0.381800
     42 HAA1         1.7600     3.7620     0.5700 h1         1 4ST       0.034700
     43 HAA2         3.4930     4.1130     0.5140 h1         1 4ST       0.034700
     44 HAA3         2.6880     3.8770     2.0710 h1         1 4ST       0.034700
     45 HAN1         2.6970     2.4490     3.6060 hc         1 4ST       0.066700
     46 HAN2         1.7740     0.9650     3.9030 hc         1 4ST       0.066700
     47 HBE          4.0010     0.4790     4.4050 h2         1 4ST       0.085700
     48 HAC1         3.6670    -2.6800     0.7680 hc         1 4ST       0.062367
     49 HAC2         1.9450    -2.2830     0.6920 hc         1 4ST       0.062367
     50 HAC3         2.6950    -2.6720     2.2460 hc         1 4ST       0.062367
     51 HAH          2.4830    -2.3090    -0.9210 ha         1 4ST       0.141000
     52 HAF          2.9590    -2.9130    -3.2730 ha         1 4ST       0.125000
     53 HAE          4.7810    -1.8780    -4.5110 ha         1 4ST       0.125000
     54 HAG          6.2420    -0.1700    -3.4640 ha         1 4ST       0.134000
     55 HAL1         4.5350     3.4890     5.0520 hc         1 4ST       0.043700
     56 HAL2         5.1960     1.9470     5.6280 hc         1 4ST       0.043700
     57 HAJ1         6.4210     4.0090     6.4730 hc         1 4ST       0.045700
     58 HAJ2         7.4440     2.8320     5.6310 hc         1 4ST       0.045700
     59 HAI1         7.8150     5.2460     4.9410 hc         1 4ST       0.042200
     60 HAI2         6.1800     5.2240     4.2560 hc         1 4ST       0.042200
     61 HAK1         8.5420     3.4880     3.4540 hc         1 4ST       0.067700
     62 HAK2         7.6970     4.6890     2.4580 hc         1 4ST       0.067700
     63 HAM1         7.2660     2.2760    -2.7660 h1         1 4ST       0.055700
     64 HAM2         8.3810     1.0040    -2.2130 h1         1 4ST       0.055700
     65 HAP          9.4830     3.3420    -1.9220 hn         1 4ST       0.346500
@<TRIPOS>BOND
     1     1     2 1   
     2     1    36 1   
     3     1    37 1   
     4     1    38 1   
     5     2     3 1   
     6     3     4 1   
     7     3    10 1   
     8     3    39 1   
     9     4     5 1   
    10     4     7 1   
    11     4    40 1   
    12     5     6 1   
    13     5    41 1   
    14     6    42 1   
    15     6    43 1   
    16     6    44 1   
    17     7     8 1   
    18     7    45 1   
    19     7    46 1   
    20     8     9 1   
    21     8    22 1   
    22     8    47 1   
    23     9    10 1   
    24    10    11 1   
    25    10    12 1   
    26    11    48 1   
    27    11    49 1   
    28    11    50 1   
    29    12    13 1   
    30    12    20 1   
    31    13    14 ar  
    32    13    18 ar  
    33    14    15 ar  
    34    14    51 1   
    35    15    16 ar  
    36    15    52 1   
    37    16    17 ar  
    38    16    53 1   
    39    17    18 ar  
    40    17    54 1   
    41    18    19 1   
    42    19    20 ar  
    43    19    31 ar  
    44    20    21 ar  
    45    21    22 1   
    46    21    29 ar  
    47    22    23 1   
    48    23    24 1   
    49    23    28 2   
    50    24    25 1   
    51    24    55 1   
    52    24    56 1   
    53    25    26 1   
    54    25    57 1   
    55    25    58 1   
    56    26    27 1   
    57    26    59 1   
    58    26    60 1   
    59    27    28 1   
    60    27    61 1   
    61    27    62 1   
    62    28    29 1   
    63    29    30 ar  
    64    30    31 ar  
    65    30    34 1   
    66    31    32 1   
    67    32    33 1   
    68    32    63 1   
    69    32    64 1   
    70    33    34 1   
    71    33    65 1   
    72    34    35 2   
@<TRIPOS>SUBSTRUCTURE
     1 4ST         1 TEMP              0 ****  ****    0 ROOT
