@<TRIPOS>MOLECULE
4SV
   15    15     1     0     0
SMALL
bcc


@<TRIPOS>ATOM
      1 O2           0.0000     0.0000     0.0000 o          1 4SV      -0.887800
      2 C6           1.2140     0.0000     0.0000 c          1 4SV       0.989200
      3 O1           1.8880     0.0000     1.1670 o          1 4SV      -0.887800
      4 C5           1.9520    -0.0040    -1.2790 ca         1 4SV      -0.152600
      5 C1           1.2740    -0.1230    -2.5050 ca         1 4SV      -0.038700
      6 N1          -0.1090    -0.2400    -2.5410 nv         1 4SV      -0.457200
      7 C4           3.3470     0.1170    -1.3060 ca         1 4SV      -0.141300
      8 C3           3.9960     0.1100    -2.5230 ca         1 4SV       0.289200
      9 N2           3.3260    -0.0090    -3.6530 nb         1 4SV      -0.584000
     10 C2           2.0160    -0.1210    -3.6830 ca         1 4SV       0.272200
     11 H4           3.9080     0.2150    -0.3850 ha         1 4SV       0.129000
     12 H11N        -0.6260     0.1690    -3.2930 hn         1 4SV       0.274800
     13 H12N        -0.5820    -0.7850    -1.8470 hn         1 4SV       0.274800
     14 H2           1.5080    -0.2140    -4.6360 h4         1 4SV      -0.038900
     15 H3           5.0750     0.2010    -2.5510 h4         1 4SV      -0.040900
@<TRIPOS>BOND
     1     1     2 1   
     2     2     3 1   
     3     2     4 1   
     4     4     5 ar  
     5     4     7 ar  
     6     5     6 1   
     7     5    10 ar  
     8     6    12 1   
     9     6    13 1   
    10     7     8 ar  
    11     7    11 1   
    12     8     9 ar  
    13     8    15 1   
    14     9    10 ar  
    15    10    14 1   
@<TRIPOS>SUBSTRUCTURE
     1 4SV         1 TEMP              0 ****  ****    0 ROOT
