@<TRIPOS>MOLECULE
molecule
   15    15     1     0     0
SMALL
bcc


@<TRIPOS>ATOM
      1 O2           0.0000     0.0000     0.0000 o          1 4SV      -0.839800
      2 C6           1.2140     0.0000     0.0000 c          1 4SV       0.892200
      3 O1           1.8880     0.0000     1.1670 o          1 4SV      -0.839800
      4 C5           1.9520    -0.0040    -1.2790 ca         1 4SV      -0.142600
      5 C1           1.2740    -0.1230    -2.5050 ca         1 4SV       0.096300
      6 N1          -0.1090    -0.2400    -2.5410 nv         1 4SV      -0.915200
      7 C4           3.3470     0.1170    -1.3060 ca         1 4SV      -0.181300
      8 C3           3.9960     0.1100    -2.5230 ca         1 4SV       0.320200
      9 N2           3.3260    -0.0090    -3.6530 nb         1 4SV      -0.697000
     10 C2           2.0160    -0.1210    -3.6830 ca         1 4SV       0.304200
     11 H4           3.9080     0.2150    -0.3850 ha         1 4SV       0.154000
     12 H11N        -0.6260     0.1690    -3.2930 hn         1 4SV       0.430300
     13 H12N        -0.5820    -0.7850    -1.8470 hn         1 4SV       0.430300
     14 H2           1.5080    -0.2140    -4.6360 h4         1 4SV      -0.006900
     15 H3           5.0750     0.2010    -2.5510 h4         1 4SV      -0.006900
@<TRIPOS>BOND
     1     1     2 1
     2     2     3 1
     3     2     4 1
     4     4     5 ar
     5     4     7 ar
     6     5     6 1
     7     5    10 ar
     8     7     8 ar
     9     8     9 ar
    10     9    10 ar
    11     7    11 1
    12     6    12 1
    13     6    13 1
    14    10    14 1
    15     8    15 1
@<TRIPOS>SUBSTRUCTURE
     1 4SV         1 TEMP              0 ****  ****    0 ROOT
