@<TRIPOS>MOLECULE
4SX
   17    17     1     0     0
SMALL
bcc


@<TRIPOS>ATOM
      1 O11        -0.0690    0.1240   -0.0500 o         1 4SX     -0.744533
      2 S9          1.3400    0.0100    0.0230 s6        1 4SX      1.460100
      3 O12         1.8740    0.1730    1.3210 o         1 4SX     -0.744533
      4 O10         1.8490   -1.1170   -0.6600 o         1 4SX     -0.744533
      5 C4          1.9400    1.4120   -0.8930 ca        1 4SX     -0.251500
      6 C3          1.1190    2.0290   -1.8310 ca        1 4SX     -0.081000
      7 C5          3.2290    1.9040   -0.6860 ca        1 4SX     -0.040000
      8 C6          3.7180    2.9920   -1.4050 ca        1 4SX     -0.171000
      9 C1          2.8940    3.6090   -2.3560 ca        1 4SX      0.107100
     10 O7          3.4090    4.6830   -3.0530 oh        1 4SX     -0.517100
     11 C2          1.5890    3.1230   -2.5640 ca        1 4SX     -0.004900
     12 O8          0.8250    3.7850   -3.5160 oh        1 4SX     -0.542100
     13 H1          0.0920    1.6550   -1.9810 ha        1 4SX      0.154000
     14 H2          3.8650    1.4220    0.0760 ha        1 4SX      0.146000
     15 H3          4.7330    3.3780   -1.2430 ha        1 4SX      0.130000
     16 H4          2.7200    4.9920   -3.6570 ho        1 4SX      0.423000
     17 H5         -0.0440    3.3610   -3.5210 ho        1 4SX      0.421000
@<TRIPOS>BOND
     1    1    2 1   
     2    2    3 1   
     3    2    4 1   
     4    2    5 1   
     5    5    6 ar  
     6    5    7 ar  
     7    6   11 ar  
     8    6   13 1   
     9    7    8 ar  
    10    7   14 1   
    11    8    9 ar  
    12    8   15 1   
    13    9   10 1   
    14    9   11 ar  
    15   10   16 1   
    16   11   12 1   
    17   12   17 1   
@<TRIPOS>SUBSTRUCTURE
     1 4SX         1 TEMP              0 ****  ****    0 ROOT
