@<TRIPOS>MOLECULE
molecule
   17    17     1     0     0
SMALL
bcc


@<TRIPOS>ATOM
      1 O11          0.0000     0.0000     0.0000 o          1 4SX      -0.707867
      2 S9           1.4210     0.0000     0.0000 s6         1 4SX       1.322100
      3 O12          2.1990     0.0000     1.1890 o          1 4SX      -0.707867
      4 O10          1.8520    -1.2240    -0.7950 o          1 4SX      -0.707867
      5 C4           1.9180     1.4200    -0.9190 ca         1 4SX      -0.249500
      6 C3           1.0590     1.9750    -1.8490 ca         1 4SX      -0.060000
      7 C5           3.1640     1.9780    -0.7040 ca         1 4SX      -0.034000
      8 C6           3.5580     3.0910    -1.4220 ca         1 4SX      -0.192000
      9 C1           2.7040     3.6510    -2.3600 ca         1 4SX       0.091100
     10 O7           3.0900     4.7460    -3.0660 oh         1 4SX      -0.527100
     11 C2           1.4480     3.0910    -2.5720 ca         1 4SX       0.046100
     12 O8           0.6060     3.6360    -3.4900 oh         1 4SX      -0.524100
     13 H1           0.0810     1.5370    -2.0120 ha         1 4SX       0.160000
     14 H2           3.8330     1.5430     0.0280 ha         1 4SX       0.153000
     15 H3           4.5350     3.5270    -1.2530 ha         1 4SX       0.121000
     16 H4           3.7160     4.4910    -3.7240 ho         1 4SX       0.409000
     17 H5          -0.1020     4.0740    -3.0470 ho         1 4SX       0.408000
@<TRIPOS>BOND
     1     1     2 1   
     2     3     2 1   
     3    12    11 1   
     4    10     9 1   
     5     9    11 ar  
     6     9     8 ar  
     7    11     6 ar  
     8     2     5 1   
     9     2     4 1   
    10     8     7 ar  
    11     5     6 ar  
    12     5     7 ar  
    13     6    13 1   
    14     7    14 1   
    15     8    15 1   
    16    10    16 1   
    17    12    17 1   
@<TRIPOS>SUBSTRUCTURE
     1 4SX         1 TEMP              0 ****  ****    0 ROOT
