@<TRIPOS>MOLECULE
4SY
   47    48     1     0     0
SMALL
bcc


@<TRIPOS>ATOM
      1 CAV          0.0000     0.0000     0.0000 ca         1 4SY      -0.140300
      2 CAK          1.3830     0.0000     0.0000 ca         1 4SY      -0.081500
      3 CAI          2.0770     0.0000     1.1940 ca         1 4SY      -0.105000
      4 CAJ         -0.6970     0.0010     1.1960 ca         1 4SY      -0.081500
      5 CAH         -0.0130     0.0020     2.3950 ca         1 4SY      -0.105000
      6 CAT          1.3800     0.0010     2.4000 ca         1 4SY       0.044000
      7 CAU          2.1200     0.0010     3.6880 cc         1 4SY      -0.279300
      8 CAM          1.5680    -0.0040     4.9350 cd         1 4SY      -0.235300
      9 CAL          3.5200    -0.0010     3.8420 cc         1 4SY       0.409200
     10 NAN          3.7870    -0.0010     5.1210 nd         1 4SY      -0.646800
     11 NAX          2.5780    -0.0030     5.8280 na         1 4SY       0.497400
     12 CAA          2.4350    -0.0060     7.2860 c3         1 4SY       0.021600
     13 CAD         -4.4380     1.7230    -4.3840 c3         1 4SY      -0.029767
     14 CAY         -4.0090     2.8470    -3.4390 c3         1 4SY       0.196800
     15 CAB         -2.9130     3.6820    -4.1040 c3         1 4SY      -0.029767
     16 CAC         -5.2120     3.7390    -3.1280 c3         1 4SY      -0.029767
     17 OAQ         -3.5010     2.2750    -2.2050 os         1 4SY      -0.416900
     18 OAE         -1.9420     1.2310    -3.3920 o          1 4SY      -0.667000
     19 N           -1.9110     0.8940    -1.1980 ns         1 4SY      -0.147900
     20 CA          -0.7510     0.0060    -1.3060 c3         1 4SY       0.030000
     21 C           -1.2160    -1.3920    -1.6240 c          1 4SY       0.561100
     22 O           -2.4000    -1.6230    -1.7490 o          1 4SY      -0.611100
     23 NAO         -0.3160    -2.3840    -1.7710 ns         1 4SY      -0.049400
     24 OAG         -0.7520    -3.6970    -2.0710 oh         1 4SY      -0.438100
     25 H1           1.9230    -0.0010    -0.9390 ha         1 4SY       0.110000
     26 H2           3.1600    -0.0000     1.1930 ha         1 4SY       0.110000
     27 H3          -1.7800     0.0010     1.1910 ha         1 4SY       0.110000
     28 H4          -0.5590     0.0020     3.3310 ha         1 4SY       0.110000
     29 H5           0.5100    -0.0060     5.1660 h4         1 4SY       0.150000
     30 H6           4.2490     0.0000     3.0400 h4         1 4SY       0.007100
     31 H7           3.4160     0.0430     7.7450 h1         1 4SY       0.023700
     32 H8           1.8490     0.8510     7.5940 h1         1 4SY       0.023700
     33 H9           1.9360    -0.9160     7.5980 h1         1 4SY       0.023700
     34 H10         -4.8760     0.9150    -3.8100 hc         1 4SY       0.018922
     35 H11         -5.1690     2.1030    -5.0890 hc         1 4SY       0.018922
     36 H12         -3.5740     1.3560    -4.9240 hc         1 4SY       0.018922
     37 H13         -3.3650     4.4050    -4.7720 hc         1 4SY       0.018922
     38 H14         -2.3430     4.2010    -3.3430 hc         1 4SY       0.018922
     39 H15         -2.2550     3.0320    -4.6670 hc         1 4SY       0.018922
     40 H16         -5.5930     4.1660    -4.0480 hc         1 4SY       0.018922
     41 H17         -5.9880     3.1480    -2.6560 hc         1 4SY       0.018922
     42 H18         -4.9080     4.5350    -2.4600 hc         1 4SY       0.018922
     43 H19         -2.3060     1.0940    -0.3000 hn         1 4SY       0.184500
     44 H20         -0.0990     0.3590    -2.0960 h1         1 4SY       0.067700
     45 H21          0.6630    -2.1850    -1.7070 hn         1 4SY       0.157500
     46 H22         -0.0230    -4.2080    -2.3800 ho         1 4SY       0.391000
     47 CAR         -2.4340     1.4580    -2.3050 c          1 4SY       0.697100
@<TRIPOS>BOND
     1     1     2 ar  
     2     1     4 ar  
     3     1    20 1   
     4     2     3 ar  
     5     2    25 1   
     6     3     6 ar  
     7     3    26 1   
     8     4     5 ar  
     9     4    27 1   
    10     5     6 ar  
    11     5    28 1   
    12     6     7 1   
    13     7     8 2   
    14     7     9 1   
    15     8    11 1   
    16     8    29 1   
    17     9    10 2   
    18     9    30 1   
    19    10    11 1   
    20    11    12 1   
    21    12    31 1   
    22    12    32 1   
    23    12    33 1   
    24    13    14 1   
    25    13    34 1   
    26    13    35 1   
    27    13    36 1   
    28    14    15 1   
    29    14    16 1   
    30    14    17 1   
    31    15    37 1   
    32    15    38 1   
    33    15    39 1   
    34    16    40 1   
    35    16    41 1   
    36    16    42 1   
    37    17    47 1   
    38    18    47 2   
    39    19    20 1   
    40    19    43 1   
    41    19    47 1   
    42    20    21 1   
    43    20    44 1   
    44    21    22 2   
    45    21    23 1   
    46    23    24 1   
    47    23    45 1   
    48    24    46 1   
@<TRIPOS>SUBSTRUCTURE
     1 4SY         1 TEMP              0 ****  ****    0 ROOT
