@<TRIPOS>MOLECULE
molecule
   47    48     1     0     0
SMALL
bcc


@<TRIPOS>ATOM
      1 CAA          0.0000     0.0000     0.0000 c3         1 4SZ      -0.106100
      2 CBB          1.5300     0.0000     0.0000 c3         1 4SZ       0.178800
      3 CAB          2.0400     0.0000     1.4430 c3         1 4SZ      -0.106100
      4 CAC          2.0410    -1.2490    -0.7210 c3         1 4SZ      -0.106100
      5 OAR          2.0140     1.1860    -0.6840 os         1 4SZ      -0.432900
      6 CAS          1.6520     2.3780    -0.1720 c          1 4SZ       0.767100
      7 OAD          0.9510     2.4250     0.8190 o          1 4SZ      -0.615000
      8 N            2.0670     3.5170    -0.7600 ns         1 4SZ      -0.552900
      9 CA           1.6730     4.8140    -0.2030 c3         1 4SZ       0.125000
     10 C            0.3190     5.2000    -0.7400 c          1 4SZ       0.658100
     11 O           -0.2600     4.4660    -1.5120 o          1 4SZ      -0.553100
     12 NAP         -0.2480     6.3630    -0.3620 ns         1 4SZ      -0.468400
     13 OAF         -1.5200     6.7270    -0.8670 oh         1 4SZ      -0.358100
     14 CAY          2.6860     5.8580    -0.5960 ca         1 4SZ      -0.103300
     15 CAM          3.2220     5.8530    -1.8720 ca         1 4SZ      -0.115000
     16 CAK          4.1510     6.8070    -2.2360 ca         1 4SZ      -0.107000
     17 CAL          3.0740     6.8200     0.3190 ca         1 4SZ      -0.115000
     18 CAJ          4.0010     7.7790    -0.0370 ca         1 4SZ      -0.107000
     19 CAW          4.5480     7.7760    -1.3180 cp         1 4SZ      -0.033000
     20 CAX          5.5460     8.8030    -1.7040 cp         1 4SZ       0.001000
     21 CAN          6.0850     8.8040    -2.9900 ca         1 4SZ      -0.155000
     22 CAU          7.0140     9.7640    -3.3470 ca         1 4SZ       0.128400
     23 FAG          7.5360     9.7660    -4.5930 f          1 4SZ      -0.117900
     24 CAZ          7.4110    10.7230    -2.4270 ca         1 4SZ       0.060900
     25 FAI          8.3190    11.6590    -2.7800 f          1 4SZ      -0.111900
     26 CAV          6.8760    10.7240    -1.1480 ca         1 4SZ       0.128400
     27 FAH          7.2670    11.6610    -0.2550 f          1 4SZ      -0.117900
     28 CAO          5.9430     9.7720    -0.7860 ca         1 4SZ      -0.155000
     29 H1          -0.3610    -1.0160     0.1020 hc         1 4SZ       0.050700
     30 H2          -0.3610     0.4200    -0.9310 hc         1 4SZ       0.050700
     31 H3          -0.3610     0.5960     0.8290 hc         1 4SZ       0.050700
     32 H4           1.4100     0.6400     2.0490 hc         1 4SZ       0.050700
     33 H5           3.0580     0.3700     1.4660 hc         1 4SZ       0.050700
     34 H6           2.0130    -1.0090     1.8350 hc         1 4SZ       0.050700
     35 H7           1.6830    -2.1340    -0.2090 hc         1 4SZ       0.050700
     36 H8           1.6780    -1.2510    -1.7420 hc         1 4SZ       0.050700
     37 H9           3.1250    -1.2460    -0.7240 hc         1 4SZ       0.050700
     38 H10          2.6650     3.4780    -1.5610 hn         1 4SZ       0.333500
     39 H11          1.6270     4.7440     0.8770 h1         1 4SZ       0.101700
     40 H12          0.2100     6.9480     0.3090 hn         1 4SZ       0.318500
     41 H13         -1.8820     7.4180    -0.3380 ho         1 4SZ       0.398000
     42 H14          2.9120     5.0980    -2.5850 ha         1 4SZ       0.140500
     43 H15          4.5720     6.8010    -3.2350 ha         1 4SZ       0.141000
     44 H16          2.6480     6.8230     1.3150 ha         1 4SZ       0.140500
     45 H17          4.3050     8.5320     0.6810 ha         1 4SZ       0.141000
     46 H18          5.7340     8.0900    -3.7250 ha         1 4SZ       0.159000
     47 H19          5.5270     9.7740     0.2140 ha         1 4SZ       0.159000
@<TRIPOS>BOND
     1     4     2 1
     2     3     2 1
     3     2     1 1
     4     2     5 1
     5    13    12 1
     6     5     6 1
     7    12    10 1
     8    11    10 2
     9     7     6 2
    10     6     8 1
    11    10     9 1
    12     8     9 1
    13     9    14 1
    14    14    17 ar
    15    14    15 ar
    16    17    18 ar
    17    15    16 ar
    18    18    19 ar
    19    16    19 ar
    20    19    20 1
    21    20    28 ar
    22    20    21 ar
    23    28    26 ar
    24    21    22 ar
    25    26    27 1
    26    26    24 ar
    27    22    24 ar
    28    22    23 1
    29    24    25 1
    30     1    29 1
    31     1    30 1
    32     1    31 1
    33     3    32 1
    34     3    33 1
    35     3    34 1
    36     4    35 1
    37     4    36 1
    38     4    37 1
    39     8    38 1
    40     9    39 1
    41    12    40 1
    42    13    41 1
    43    15    42 1
    44    16    43 1
    45    17    44 1
    46    18    45 1
    47    21    46 1
    48    28    47 1
@<TRIPOS>SUBSTRUCTURE
     1 4SZ         1 TEMP              0 ****  ****    0 ROOT
