@<TRIPOS>MOLECULE
4T0
   77    81     1     0     0
SMALL
bcc


@<TRIPOS>ATOM
      1 C13          0.0000     0.0000     0.0000 ca         1 4T0       0.088600
      2 C18         -2.6500     0.6130    -2.5070 c          1 4T0       0.599100
      3 C17         -2.1550     0.0060    -1.2200 c3         1 4T0       0.120800
      4 C15         -0.0660    -0.0010     2.4020 ca         1 4T0      -0.024000
      5 C21         -4.1920     0.4700    -5.1520 ca         1 4T0       0.042700
      6 C22         -3.7790    -0.8390    -4.9960 ca         1 4T0      -0.171000
      7 C23         -3.4110    -1.5870    -6.1070 ca         1 4T0      -0.026400
      8 C24         -3.4600    -1.0160    -7.3720 ca         1 4T0      -0.138000
      9 C11          2.0660     0.0000     1.2210 ca         1 4T0       0.086000
     10 C12          1.3810     0.0000     0.0000 ca         1 4T0      -0.210000
     11 C34         -2.0400    -3.4170    -6.7620 c          1 4T0       0.561100
     12 N1          -3.9740     0.7180    -2.7380 n          1 4T0      -0.141800
     13 C2          -4.5910     1.2820    -3.9480 c3         1 4T0       0.038000
     14 C3          -6.1210     1.2180    -3.7530 c3         1 4T0      -0.033400
     15 C4          -6.2730     1.1420    -2.2120 c3         1 4T0      -0.031400
     16 C5          -5.0420     0.2810    -1.8210 c3         1 4T0       0.016000
     17 N6           3.3700    -0.0010     3.6360 nb         1 4T0      -0.703000
     18 C7           4.0720    -0.0010     2.5100 ca         1 4T0       0.471200
     19 C8           3.4740     0.0000     1.2880 ca         1 4T0      -0.309300
     20 C9           2.0500    -0.0020     3.6530 ca         1 4T0       0.541200
     21 C10          1.3340    -0.0010     2.4360 ca         1 4T0      -0.251300
     22 C14         -0.7140    -0.0010     1.2040 ca         1 4T0      -0.196000
     23 N16         -0.6900     0.0060    -1.2120 nu         1 4T0      -0.402600
     24 N20          1.3710    -0.0030     4.8590 nv         1 4T0      -0.523500
     25 C25         -3.8750     0.2930    -7.5210 ca         1 4T0       0.026000
     26 C26         -4.2350     1.0370    -6.4120 ca         1 4T0      -0.159500
     27 S27         -4.7630     2.7060    -6.6080 sy         1 4T0       0.872300
     28 O28         -5.5680     2.6860    -7.7780 o          1 4T0      -0.594800
     29 O29         -5.3160     3.0490    -5.3440 o          1 4T0      -0.594800
     30 C30         -3.2320     3.6330    -6.9050 c3         1 4T0      -0.005900
     31 C31         -3.5530     5.1250    -7.0180 c3         1 4T0       0.023400
     32 C32         -2.2650     3.4070    -5.7410 c3         1 4T0       0.023400
     33 N33         -2.9920    -2.9120    -5.9520 ns         1 4T0      -0.045100
     34 O35         -1.4800    -2.6980    -7.5620 o          1 4T0      -0.623100
     35 C36         -2.6580    -1.4100    -1.1070 ca         1 4T0      -0.122300
     36 C37         -3.7570    -1.6920    -0.3190 ca         1 4T0      -0.094000
     37 C38         -4.2190    -2.9920    -0.2150 ca         1 4T0      -0.101500
     38 C39         -3.5800    -4.0090    -0.8990 ca         1 4T0      -0.094000
     39 C40         -2.4800    -3.7260    -1.6880 ca         1 4T0      -0.101500
     40 C41         -2.0230    -2.4260    -1.7960 ca         1 4T0      -0.094000
     41 C42         -1.6710    -4.8760    -6.6740 c3         1 4T0      -0.067100
     42 H56         -2.5210     0.5870    -0.3820 h1         1 4T0       0.057700
     43 H54         -0.6320    -0.0020     3.3250 ha         1 4T0       0.095000
     44 H59         -3.7420    -1.2820    -4.0080 ha         1 4T0       0.120000
     45 H60         -3.1760    -1.5970    -8.2410 ha         1 4T0       0.142000
     46 H52          1.9280     0.0010    -0.9350 ha         1 4T0       0.120000
     47 H43         -4.2810     2.3120    -4.0720 h1         1 4T0       0.109700
     48 H44         -6.5280     0.3290    -4.2210 hc         1 4T0       0.050700
     49 H45         -6.5930     2.1130    -4.1390 hc         1 4T0       0.050700
     50 H47         -7.1950     0.6420    -1.9390 hc         1 4T0       0.025700
     51 H46         -6.2110     2.1280    -1.7680 hc         1 4T0       0.025700
     52 H49         -4.7590     0.4750    -0.7940 h1         1 4T0       0.026700
     53 H48         -5.2570    -0.7710    -1.9690 h1         1 4T0       0.026700
     54 H50          5.1540    -0.0010     2.5650 h4         1 4T0      -0.030900
     55 H51          4.0690     0.0010     0.3830 ha         1 4T0       0.117000
     56 H53         -1.7970    -0.0010     1.1820 ha         1 4T0       0.112000
     57 H55         -0.1850     0.0540    -2.0750 hn         1 4T0       0.320800
     58 H57          0.3700    -0.0070     4.8690 hn         1 4T0       0.271800
     59 H58          1.8800    -0.0040     5.7200 hn         1 4T0       0.271800
     60 H61         -3.9110     0.7400    -8.5070 ha         1 4T0       0.115000
     61 H62         -2.7750     3.2910    -7.8250 h1         1 4T0       0.073700
     62 H64         -3.9380     5.4850    -6.0720 hc         1 4T0       0.018033
     63 H65         -4.2970     5.2760    -7.7910 hc         1 4T0       0.018033
     64 H63         -2.6520     5.6700    -7.2730 hc         1 4T0       0.018033
     65 H67         -1.9530     2.3700    -5.7270 hc         1 4T0       0.018033
     66 H68         -1.3970     4.0440    -5.8640 hc         1 4T0       0.018033
     67 H66         -2.7600     3.6480    -4.8080 hc         1 4T0       0.018033
     68 H69         -3.3200    -3.4500    -5.1740 hn         1 4T0       0.171500
     69 H70         -4.2580    -0.8950     0.2180 ha         1 4T0       0.115500
     70 H71         -5.0800    -3.2130     0.4030 ha         1 4T0       0.104500
     71 H72         -3.9400    -5.0280    -0.8160 ha         1 4T0       0.105000
     72 H73         -1.9800    -4.5220    -2.2270 ha         1 4T0       0.104500
     73 H74         -1.1610    -2.2050    -2.4150 ha         1 4T0       0.115500
     74 H77         -2.5460    -5.4540    -6.4010 hc         1 4T0       0.025033
     75 H76         -0.9020    -5.0100    -5.9230 hc         1 4T0       0.025033
     76 H75         -1.3010    -5.2140    -7.6340 hc         1 4T0       0.025033
     77 O19         -1.8570     1.0080    -3.3360 o          1 4T0      -0.653100
@<TRIPOS>BOND
     1     1    10 ar  
     2     1    22 ar  
     3     1    23 1   
     4     2     3 1   
     5     2    12 1   
     6     2    77 2   
     7     3    23 1   
     8     3    35 1   
     9     3    42 1   
    10     4    21 ar  
    11     4    22 ar  
    12     4    43 1   
    13     5     6 ar  
    14     5    13 1   
    15     5    26 ar  
    16     6     7 ar  
    17     6    44 1   
    18     7     8 ar  
    19     7    33 1   
    20     8    25 ar  
    21     8    45 1   
    22     9    10 ar  
    23     9    19 ar  
    24     9    21 ar  
    25    10    46 1   
    26    11    33 1   
    27    11    34 2   
    28    11    41 1   
    29    12    13 1   
    30    12    16 1   
    31    13    14 1   
    32    13    47 1   
    33    14    15 1   
    34    14    48 1   
    35    14    49 1   
    36    15    16 1   
    37    15    50 1   
    38    15    51 1   
    39    16    52 1   
    40    16    53 1   
    41    17    18 ar  
    42    17    20 ar  
    43    18    19 ar  
    44    18    54 1   
    45    19    55 1   
    46    20    21 ar  
    47    20    24 1   
    48    22    56 1   
    49    23    57 1   
    50    24    58 1   
    51    24    59 1   
    52    25    26 ar  
    53    25    60 1   
    54    26    27 1   
    55    27    28 2   
    56    27    29 2   
    57    27    30 1   
    58    30    31 1   
    59    30    32 1   
    60    30    61 1   
    61    31    62 1   
    62    31    63 1   
    63    31    64 1   
    64    32    65 1   
    65    32    66 1   
    66    32    67 1   
    67    33    68 1   
    68    35    36 ar  
    69    35    40 ar  
    70    36    37 ar  
    71    36    69 1   
    72    37    38 ar  
    73    37    70 1   
    74    38    39 ar  
    75    38    71 1   
    76    39    40 ar  
    77    39    72 1   
    78    40    73 1   
    79    41    74 1   
    80    41    75 1   
    81    41    76 1   
@<TRIPOS>SUBSTRUCTURE
     1 4T0         1 TEMP              0 ****  ****    0 ROOT
