@<TRIPOS>MOLECULE
molecule
   77    81     1     0     0
SMALL
bcc


@<TRIPOS>ATOM
      1 C13          0.0000     0.0000     0.0000 ca         1 4T0       0.228600
      2 C18         -2.6500     0.6130    -2.5070 c          1 4T0       0.674100
      3 C17         -2.1550     0.0060    -1.2200 c3         1 4T0       0.219800
      4 C15         -0.0660    -0.0010     2.4020 ca         1 4T0      -0.053000
      5 C21         -4.1920     0.4700    -5.1520 ca         1 4T0       0.033700
      6 C22         -3.7790    -0.8390    -4.9960 ca         1 4T0      -0.176000
      7 C23         -3.4110    -1.5870    -6.1070 ca         1 4T0       0.115600
      8 C24         -3.4600    -1.0160    -7.3720 ca         1 4T0      -0.153000
      9 C11          2.0660     0.0000     1.2210 ca         1 4T0       0.074000
     10 C12          1.3810     0.0000     0.0000 ca         1 4T0      -0.228000
     11 C34         -2.0400    -3.4170    -6.7620 c          1 4T0       0.657100
     12 N1          -3.9740     0.7180    -2.7380 n          1 4T0      -0.487800
     13 C2          -4.5910     1.2820    -3.9480 c3         1 4T0       0.140000
     14 C3          -6.1210     1.2180    -3.7530 c3         1 4T0      -0.076400
     15 C4          -6.2730     1.1420    -2.2120 c3         1 4T0      -0.097400
     16 C5          -5.0420     0.2810    -1.8210 c3         1 4T0       0.084000
     17 N6           3.3700    -0.0010     3.6360 nb         1 4T0      -0.801000
     18 C7           4.0720    -0.0010     2.5100 ca         1 4T0       0.480200
     19 C8           3.4740     0.0000     1.2880 ca         1 4T0      -0.325300
     20 C9           2.0500    -0.0020     3.6530 ca         1 4T0       0.735200
     21 C10          1.3340    -0.0010     2.4360 ca         1 4T0      -0.249300
     22 C14         -0.7140    -0.0010     1.2040 ca         1 4T0      -0.206000
     23 N16         -0.6900     0.0060    -1.2120 nu         1 4T0      -0.805600
     24 N20          1.3710    -0.0030     4.8590 nv         1 4T0      -1.005500
     25 C25         -3.8750     0.2930    -7.5210 ca         1 4T0      -0.012000
     26 C26         -4.2350     1.0370    -6.4120 ca         1 4T0      -0.308500
     27 S27         -4.7630     2.7060    -6.6080 sy         1 4T0       1.194300
     28 O28         -5.5680     2.6860    -7.7780 o          1 4T0      -0.632300
     29 O29         -5.3160     3.0490    -5.3440 o          1 4T0      -0.632300
     30 C30         -3.2320     3.6330    -6.9050 c3         1 4T0      -0.184900
     31 C31         -3.5530     5.1250    -7.0180 c3         1 4T0      -0.075600
     32 C32         -2.2650     3.4070    -5.7410 c3         1 4T0      -0.075600
     33 N33         -2.9920    -2.9120    -5.9520 ns         1 4T0      -0.481100
     34 O35         -1.4800    -2.6980    -7.5620 o          1 4T0      -0.583100
     35 C36         -2.6580    -1.4100    -1.1070 ca         1 4T0      -0.112300
     36 C37         -3.7570    -1.6920    -0.3190 ca         1 4T0      -0.113500
     37 C38         -4.2190    -2.9920    -0.2150 ca         1 4T0      -0.132500
     38 C39         -3.5800    -4.0090    -0.8990 ca         1 4T0      -0.121000
     39 C40         -2.4800    -3.7260    -1.6880 ca         1 4T0      -0.132500
     40 C41         -2.0230    -2.4260    -1.7960 ca         1 4T0      -0.113500
     41 C42         -1.6710    -4.8760    -6.6740 c3         1 4T0      -0.170100
     42 H56         -2.5210     0.5870    -0.3820 h1         1 4T0       0.081700
     43 H54         -0.6320    -0.0020     3.3250 ha         1 4T0       0.120000
     44 H59         -3.7420    -1.2820    -4.0080 ha         1 4T0       0.142000
     45 H60         -3.1760    -1.5970    -8.2410 ha         1 4T0       0.164000
     46 H52          1.9280     0.0010    -0.9350 ha         1 4T0       0.140000
     47 H43         -4.2810     2.3120    -4.0720 h1         1 4T0       0.115700
     48 H44         -6.5280     0.3290    -4.2210 hc         1 4T0       0.075700
     49 H45         -6.5930     2.1130    -4.1390 hc         1 4T0       0.075700
     50 H47         -7.1950     0.6420    -1.9390 hc         1 4T0       0.058200
     51 H46         -6.2110     2.1280    -1.7680 hc         1 4T0       0.058200
     52 H49         -4.7590     0.4750    -0.7940 h1         1 4T0       0.048200
     53 H48         -5.2570    -0.7710    -1.9690 h1         1 4T0       0.048200
     54 H50          5.1540    -0.0010     2.5650 h4         1 4T0       0.015100
     55 H51          4.0690     0.0010     0.3830 ha         1 4T0       0.137000
     56 H53         -1.7970    -0.0010     1.1820 ha         1 4T0       0.127000
     57 H55         -0.1850     0.0540    -2.0750 hn         1 4T0       0.464800
     58 H57          0.3700    -0.0070     4.8690 hn         1 4T0       0.440300
     59 H58          1.8800    -0.0040     5.7200 hn         1 4T0       0.440300
     60 H61         -3.9110     0.7400    -8.5070 ha         1 4T0       0.146000
     61 H62         -2.7750     3.2910    -7.8250 h1         1 4T0       0.102700
     62 H64         -3.9380     5.4850    -6.0720 hc         1 4T0       0.053367
     63 H65         -4.2970     5.2760    -7.7910 hc         1 4T0       0.053367
     64 H63         -2.6520     5.6700    -7.2730 hc         1 4T0       0.053367
     65 H67         -1.9530     2.3700    -5.7270 hc         1 4T0       0.053367
     66 H68         -1.3970     4.0440    -5.8640 hc         1 4T0       0.053367
     67 H66         -2.7600     3.6480    -4.8080 hc         1 4T0       0.053367
     68 H69         -3.3200    -3.4500    -5.1740 hn         1 4T0       0.327500
     69 H70         -4.2580    -0.8950     0.2180 ha         1 4T0       0.137000
     70 H71         -5.0800    -3.2130     0.4030 ha         1 4T0       0.131500
     71 H72         -3.9400    -5.0280    -0.8160 ha         1 4T0       0.132000
     72 H73         -1.9800    -4.5220    -2.2270 ha         1 4T0       0.131500
     73 H74         -1.1610    -2.2050    -2.4150 ha         1 4T0       0.137000
     74 H77         -2.5460    -5.4540    -6.4010 hc         1 4T0       0.064700
     75 H76         -0.9020    -5.0100    -5.9230 hc         1 4T0       0.064700
     76 H75         -1.3010    -5.2140    -7.6340 hc         1 4T0       0.064700
     77 O19         -1.8570     1.0080    -3.3360 o          1 4T0      -0.605100
@<TRIPOS>BOND
     1    32    30 1
     2    28    27 2
     3    30    27 1
     4    30    31 1
     5    25     8 ar
     6    25    26 ar
     7    27    26 1
     8    27    29 2
     9     8     7 ar
    10    26     5 ar
    11     7    33 1
    12     7     6 ar
    13     5     6 ar
    14     5    13 1
    15    33    11 1
    16    13    14 1
    17    13    12 1
    18    77     2 2
    19    11    41 1
    20    11    34 2
    21    14    15 1
    22     2    12 1
    23     2     3 1
    24    12    16 1
    25    40    39 ar
    26    40    35 ar
    27    39    38 ar
    28    15    16 1
    29    23     3 1
    30    23     1 1
    31     3    35 1
    32    35    36 ar
    33    38    37 ar
    34    22     1 ar
    35    22     4 ar
    36     1    10 ar
    37    36    37 ar
    38     4    21 ar
    39    10     9 ar
    40    21     9 ar
    41    21    20 ar
    42     9    19 ar
    43    24    20 1
    44    20    17 ar
    45    19    18 ar
    46    17    18 ar
    47     3    42 1
    48     4    43 1
    49     6    44 1
    50     8    45 1
    51    10    46 1
    52    13    47 1
    53    14    48 1
    54    14    49 1
    55    15    50 1
    56    15    51 1
    57    16    52 1
    58    16    53 1
    59    18    54 1
    60    19    55 1
    61    22    56 1
    62    23    57 1
    63    24    58 1
    64    24    59 1
    65    25    60 1
    66    30    61 1
    67    31    62 1
    68    31    63 1
    69    31    64 1
    70    32    65 1
    71    32    66 1
    72    32    67 1
    73    33    68 1
    74    36    69 1
    75    37    70 1
    76    38    71 1
    77    39    72 1
    78    40    73 1
    79    41    74 1
    80    41    75 1
    81    41    76 1
@<TRIPOS>SUBSTRUCTURE
     1 4T0         1 TEMP              0 ****  ****    0 ROOT
