@<TRIPOS>MOLECULE
4T1
   63    67     1     0     0
SMALL
bcc


@<TRIPOS>ATOM
      1 C13        -0.1350    0.0930   -0.2520 c3        1 4T1      0.243800
      2 C18        -1.6570    2.4060    2.3340 ca        1 4T1     -0.113000
      3 C17        -1.3670    1.2690    1.5830 ca        1 4T1     -0.110500
      4 C15         1.3930    0.1440   -0.5830 c         1 4T1      0.479100
      5 C19        -1.0450    3.6310    2.0400 ca        1 4T1     -0.029300
      6 C20        -0.1860    3.7140    0.9340 ca        1 4T1     -0.113000
      7 C21         0.1000    2.5810    0.1760 ca        1 4T1     -0.110500
      8 C22        -1.3100    4.8290    2.8850 c3        1 4T1     -0.051100
      9 C23         3.5580    1.0760    0.3000 c3        1 4T1      0.173100
     10 C27         5.8730    2.4300    2.9700 ca        1 4T1     -0.094000
     11 C33         0.5080    4.9650    4.6730 c3        1 4T1     -0.148400
     12 C1         -0.8520   -4.1440   -5.9890 ca        1 4T1      0.457200
     13 N2         -1.1620   -5.2690   -5.2990 nb        1 4T1     -0.733000
     14 C3         -1.3550   -5.1730   -3.9610 ca        1 4T1      0.670200
     15 C4         -1.2530   -3.8960   -3.2600 ca        1 4T1     -0.196300
     16 C5         -0.9390   -2.7460   -4.0310 ca        1 4T1      0.040000
     17 C6         -0.7350   -2.8830   -5.4270 ca        1 4T1     -0.296300
     18 C7         -1.4400   -3.7450   -1.8650 ca        1 4T1     -0.057000
     19 C8         -1.3210   -2.5210   -1.2550 ca        1 4T1     -0.178000
     20 C9         -1.0030   -1.3570   -2.0240 ca        1 4T1      0.104600
     21 C10        -0.8180   -1.4830   -3.3940 ca        1 4T1     -0.154000
     22 N11        -0.9620   -0.0850   -1.3980 nh        1 4T1     -0.703600
     23 C14        -0.4620    1.3470    0.5200 ca        1 4T1     -0.172300
     24 O16         1.9290    0.0790   -1.6750 o         1 4T1     -0.419100
     25 N24         2.3040    0.3140    0.6170 n4        1 4T1     -0.683800
     26 C25         4.0770    1.8200    1.4850 ca        1 4T1     -0.145300
     27 C26         5.4040    1.6760    1.8930 ca        1 4T1     -0.111000
     28 C28         5.0300    3.2880    3.6690 ca        1 4T1     -0.128000
     29 C29         3.6780    3.4200    3.2790 ca        1 4T1      0.084600
     30 C30         3.2250    2.7030    2.1510 ca        1 4T1     -0.150000
     31 N31         2.7850    4.2550    3.9700 n         1 4T1     -0.494100
     32 C32         1.4580    3.8850    4.1960 c         1 4T1      0.672100
     33 O34         1.0940    2.7100    3.9960 o         1 4T1     -0.604100
     34 C35        -0.9350    4.6370    4.3460 c3        1 4T1     -0.072400
     35 H44        -0.2580   -0.8120    0.4240 h1        1 4T1      0.104700
     36 H46        -2.3660    2.3360    3.1750 ha        1 4T1      0.153000
     37 H45        -1.8550    0.3120    1.8280 ha        1 4T1      0.139000
     38 H47         0.2650    4.6810    0.6590 ha        1 4T1      0.153000
     39 H48         0.7590    2.6660   -0.7020 ha        1 4T1      0.139000
     40 H49        -0.7720    5.7230    2.4700 hc        1 4T1      0.066200
     41 H50        -2.4120    5.0550    2.8290 hc        1 4T1      0.066200
     42 H51         4.3200    0.3460   -0.0980 hx        1 4T1      0.109200
     43 H52         3.3100    1.8080   -0.5260 hx        1 4T1      0.109200
     44 H60         0.7840    5.9580    4.2290 hc        1 4T1      0.078700
     45 H59         0.6220    5.0430    5.7890 hc        1 4T1      0.078700
     46 H37        -0.4930   -2.0060   -6.0400 ha        1 4T1      0.150000
     47 H38        -1.6820   -4.6180   -1.2380 ha        1 4T1      0.141000
     48 H39        -1.5070   -2.4320   -0.1740 ha        1 4T1      0.132000
     49 H40        -0.5820   -0.6110   -4.0260 ha        1 4T1      0.145000
     50 H41        -0.9580    0.6860   -2.0360 hn        1 4T1      0.424800
     51 H43        -1.7310   -7.1730   -3.7600 hn        1 4T1      0.417300
     52 H42        -2.1800   -6.2390   -2.4440 hn        1 4T1      0.417300
     53 H53         2.5540   -0.6110    0.9810 hn        1 4T1      0.465300
     54 H54         6.0820    0.9860    1.3680 ha        1 4T1      0.148000
     55 H56         5.4210    3.8580    4.5270 ha        1 4T1      0.156000
     56 H57         2.1870    2.8520    1.8040 ha        1 4T1      0.146000
     57 H58         3.1470    5.0820    4.3840 hn        1 4T1      0.335500
     58 H61        -1.1540    3.5820    4.6600 hc        1 4T1      0.068700
     59 H62        -1.5830    5.3170    4.9640 hc        1 4T1      0.068700
     60 N12        -1.5810   -6.3400   -3.2310 nh        1 4T1     -0.928500
     61 H55         6.9270    2.3340    3.2810 ha        1 4T1      0.159000
     62 H242        1.7770    0.8130    1.3520 hn        1 4T1      0.465300
     63 H36        -0.7030   -4.3070   -7.0740 h4        1 4T1      0.033100
@<TRIPOS>BOND
     1    1    4 1
     2    1   22 1
     3    1   23 1
     4    1   35 1
     5    2    3 ar
     6    2    5 ar
     7    2   36 1
     8    3   23 ar
     9    3   37 1
    10    4   24 2
    11    4   25 1
    12    5    6 ar
    13    5    8 1
    14    6    7 ar
    15    6   38 1
    16    7   23 ar
    17    7   39 1
    18    8   34 1
    19    8   40 1
    20    8   41 1
    21    9   25 1
    22    9   26 1
    23    9   42 1
    24    9   43 1
    25   10   27 ar
    26   10   28 ar
    27   10   61 1
    28   11   32 1
    29   11   34 1
    30   11   44 1
    31   11   45 1
    32   12   13 ar
    33   12   17 ar
    34   12   63 1
    35   13   14 ar
    36   14   15 ar
    37   14   60 1
    38   15   16 ar
    39   15   18 ar
    40   16   17 ar
    41   16   21 ar
    42   17   46 1
    43   18   19 ar
    44   18   47 1
    45   19   20 ar
    46   19   48 1
    47   20   21 ar
    48   20   22 1
    49   21   49 1
    50   22   50 1
    51   25   53 1
    52   25   62 1
    53   26   27 ar
    54   26   30 ar
    55   27   54 1
    56   28   29 ar
    57   28   55 1
    58   29   30 ar
    59   29   31 1
    60   30   56 1
    61   31   32 1
    62   31   57 1
    63   32   33 2
    64   34   58 1
    65   34   59 1
    66   51   60 1
    67   52   60 1
@<TRIPOS>SUBSTRUCTURE
     1 4T1         1 TEMP              0 ****  ****    0 ROOT
