@<TRIPOS>MOLECULE
4T2
   54    55     1     0     0
SMALL
bcc


@<TRIPOS>ATOM
      1 CAA          0.0000     0.0000     0.0000 c3         1 4T2      -0.029100
      2 CBC          1.5300     0.0000     0.0000 c3         1 4T2       0.195800
      3 CAB          2.0400     0.0000     1.4420 c3         1 4T2      -0.029100
      4 CAC          2.0400    -1.2490    -0.7210 c3         1 4T2      -0.029100
      5 OAT          2.0140     1.1850    -0.6850 os         1 4T2      -0.415900
      6 CAV          1.6530     2.3770    -0.1740 c          1 4T2       0.700100
      7 OAE          0.9520     2.4260     0.8170 o          1 4T2      -0.656000
      8 N            2.0680     3.5170    -0.7620 ns         1 4T2      -0.157900
      9 CA           1.6750     4.8140    -0.2060 c3         1 4T2       0.021000
     10 C            0.3210     5.2010    -0.7420 c          1 4T2       0.555100
     11 O           -0.2580     4.4660    -1.5140 o          1 4T2      -0.595100
     12 NAR         -0.2450     6.3640    -0.3650 ns         1 4T2      -0.050400
     13 OAH         -1.5180     6.7270    -0.8700 oh         1 4T2      -0.432100
     14 CBA          2.6890     5.8570    -0.5990 ca         1 4T2      -0.090300
     15 CAO          3.0760     6.8200     0.3150 ca         1 4T2      -0.082500
     16 CAM          4.0040     7.7790    -0.0400 ca         1 4T2      -0.078000
     17 CAN          3.2320     5.8450    -1.8710 ca         1 4T2      -0.082500
     18 CAL          4.1620     6.7980    -2.2360 ca         1 4T2      -0.078000
     19 CAY          4.5510     7.7740    -1.3220 cp         1 4T2      -0.067000
     20 CAZ          5.5490     8.8010    -1.7090 cp         1 4T2       0.006000
     21 CAP          6.0900     8.7990    -2.9910 ca         1 4T2      -0.035000
     22 CAK          5.9410     9.7750    -0.7910 ca         1 4T2      -0.050000
     23 CAI          6.8690    10.7330    -1.1500 ca         1 4T2      -0.061000
     24 CAJ          7.4140    10.7330    -2.4180 ca         1 4T2      -0.116000
     25 CAX          7.0260     9.7670    -3.3470 ca         1 4T2      -0.184900
     26 CAU          7.6060     9.7710    -4.7090 ce         1 4T2       0.225800
     27 NAD          8.5370    10.7340    -5.0620 nz         1 4T2       0.154400
     28 NAQ          7.2420     8.8710    -5.5740 n2         1 4T2      -0.246200
     29 OAG          7.7970     8.8760    -6.8770 oh         1 4T2      -0.377500
     30 H1          -0.3610    -1.0160     0.1000 hc         1 4T2       0.020367
     31 H2          -0.3610     0.5950     0.8300 hc         1 4T2       0.020367
     32 H3          -0.3610     0.4210    -0.9300 hc         1 4T2       0.020367
     33 H4           1.4110     0.6420     2.0470 hc         1 4T2       0.020367
     34 H5           2.0110    -1.0090     1.8350 hc         1 4T2       0.020367
     35 H6           3.0590     0.3670     1.4650 hc         1 4T2       0.020367
     36 H7           1.6760    -1.2510    -1.7410 hc         1 4T2       0.020367
     37 H8           1.6830    -2.1340    -0.2080 hc         1 4T2       0.020367
     38 H9           3.1240    -1.2470    -0.7250 hc         1 4T2       0.020367
     39 H10          2.6560     3.4760    -1.5710 hn         1 4T2       0.180500
     40 H11          1.6290     4.7450     0.8740 h1         1 4T2       0.073700
     41 H12          0.2110     6.9470     0.3080 hn         1 4T2       0.153500
     42 H13         -1.8760     7.4260    -0.3470 ho         1 4T2       0.395000
     43 H14          2.6500     6.8230     1.3110 ha         1 4T2       0.121500
     44 H15          4.3050     8.5340     0.6750 ha         1 4T2       0.110500
     45 H16          2.9290     5.0860    -2.5810 ha         1 4T2       0.121500
     46 H17          4.5850     6.7890    -3.2330 ha         1 4T2       0.110500
     47 H18          5.8560     7.9940    -3.6760 ha         1 4T2       0.137000
     48 H19          5.5170     9.7810     0.2050 ha         1 4T2       0.131000
     49 H20          7.1710    11.4860    -0.4320 ha         1 4T2       0.124000
     50 H21          8.1440    11.4850    -2.6930 ha         1 4T2       0.080000
     51 H22          9.3340    10.6650    -4.4600 hn         1 4T2       0.228133
     52 H24          7.4290     8.1670    -7.3780 ho         1 4T2       0.482000
     53 H25          8.1280    11.6430    -4.9710 hn         1 4T2       0.228133
     54 HAD3         8.8230    10.5910    -6.0110 hn         1 4T2       0.228133
@<TRIPOS>BOND
     1     1     2 1   
     2     1    30 1   
     3     1    31 1   
     4     1    32 1   
     5     2     3 1   
     6     2     4 1   
     7     2     5 1   
     8     3    33 1   
     9     3    34 1   
    10     3    35 1   
    11     4    36 1   
    12     4    37 1   
    13     4    38 1   
    14     5     6 1   
    15     6     7 2   
    16     6     8 1   
    17     8     9 1   
    18     8    39 1   
    19     9    10 1   
    20     9    14 1   
    21     9    40 1   
    22    10    11 2   
    23    10    12 1   
    24    12    13 1   
    25    12    41 1   
    26    13    42 1   
    27    14    15 ar  
    28    14    17 ar  
    29    15    16 ar  
    30    15    43 1   
    31    16    19 ar  
    32    16    44 1   
    33    17    18 ar  
    34    17    45 1   
    35    18    19 ar  
    36    18    46 1   
    37    19    20 1   
    38    20    21 ar  
    39    20    22 ar  
    40    21    25 ar  
    41    21    47 1   
    42    22    23 ar  
    43    22    48 1   
    44    23    24 ar  
    45    23    49 1   
    46    24    25 ar  
    47    24    50 1   
    48    25    26 1   
    49    26    27 1   
    50    26    28 2   
    51    27    51 1   
    52    27    53 1   
    53    27    54 1   
    54    28    29 1   
    55    29    52 1   
@<TRIPOS>SUBSTRUCTURE
     1 4T2         1 TEMP              0 ****  ****    0 ROOT
