@<TRIPOS>MOLECULE
molecule
   54    55     1     0     0
SMALL
bcc


@<TRIPOS>ATOM
      1 CAA          0.0000     0.0000     0.0000 c3         1 4T2      -0.106433
      2 CBC          1.5300     0.0000     0.0000 c3         1 4T2       0.177800
      3 CAB          2.0400     0.0000     1.4420 c3         1 4T2      -0.106433
      4 CAC          2.0400    -1.2490    -0.7210 c3         1 4T2      -0.106433
      5 OAT          2.0140     1.1850    -0.6850 os         1 4T2      -0.432900
      6 CAV          1.6530     2.3770    -0.1740 c          1 4T2       0.768100
      7 OAE          0.9520     2.4260     0.8170 o          1 4T2      -0.607000
      8 N            2.0680     3.5170    -0.7620 ns         1 4T2      -0.557900
      9 CA           1.6750     4.8140    -0.2060 c3         1 4T2       0.121000
     10 C            0.3210     5.2010    -0.7420 c          1 4T2       0.654100
     11 O           -0.2580     4.4660    -1.5140 o          1 4T2      -0.543100
     12 NAR         -0.2450     6.3640    -0.3650 ns         1 4T2      -0.469400
     13 OAH         -1.5180     6.7270    -0.8700 oh         1 4T2      -0.354100
     14 CBA          2.6890     5.8570    -0.5990 ca         1 4T2      -0.080300
     15 CAO          3.0760     6.8200     0.3150 ca         1 4T2      -0.111000
     16 CAM          4.0040     7.7790    -0.0400 ca         1 4T2      -0.101500
     17 CAN          3.2320     5.8450    -1.8710 ca         1 4T2      -0.111000
     18 CAL          4.1620     6.7980    -2.2360 ca         1 4T2      -0.101500
     19 CAY          4.5510     7.7740    -1.3220 cp         1 4T2      -0.064000
     20 CAZ          5.5490     8.8010    -1.7090 cp         1 4T2      -0.003000
     21 CAP          6.0900     8.7990    -2.9910 ca         1 4T2      -0.056000
     22 CAK          5.9410     9.7750    -0.7910 ca         1 4T2      -0.073000
     23 CAI          6.8690    10.7330    -1.1500 ca         1 4T2      -0.097000
     24 CAJ          7.4140    10.7330    -2.4180 ca         1 4T2      -0.135000
     25 CAX          7.0260     9.7670    -3.3470 ca         1 4T2      -0.181900
     26 CAU          7.6060     9.7710    -4.7090 ce         1 4T2       0.498800
     27 NAD          8.5370    10.7340    -5.0620 nz         1 4T2      -0.779600
     28 NAQ          7.2420     8.8710    -5.5740 n2         1 4T2      -0.347200
     29 OAG          7.7970     8.8760    -6.8770 oh         1 4T2      -0.388500
     30 H1          -0.3610     0.4200    -0.9310 hc         1 4T2       0.051922
     31 H2          -0.3610    -1.0160     0.1020 hc         1 4T2       0.051922
     32 H3          -0.3610     0.5960     0.8290 hc         1 4T2       0.051922
     33 H4           2.0120    -1.0090     1.8350 hc         1 4T2       0.051922
     34 H5           1.4110     0.6410     2.0470 hc         1 4T2       0.051922
     35 H6           3.0590     0.3680     1.4650 hc         1 4T2       0.051922
     36 H7           1.6760    -1.2510    -1.7410 hc         1 4T2       0.051922
     37 H8           1.6820    -2.1340    -0.2080 hc         1 4T2       0.051922
     38 H9           3.1240    -1.2470    -0.7250 hc         1 4T2       0.051922
     39 H10          2.6560     3.4760    -1.5710 hn         1 4T2       0.329500
     40 H11          1.6290     4.7450     0.8740 h1         1 4T2       0.106700
     41 H12          0.2110     6.9470     0.3080 hn         1 4T2       0.315500
     42 H13         -1.8770     7.4240    -0.3460 ho         1 4T2       0.401000
     43 H14          2.6500     6.8230     1.3110 ha         1 4T2       0.149500
     44 H15          4.3050     8.5340     0.6750 ha         1 4T2       0.135500
     45 H16          2.9290     5.0860    -2.5810 ha         1 4T2       0.149500
     46 H17          4.5850     6.7890    -3.2330 ha         1 4T2       0.135500
     47 H18          5.7170     8.1070    -3.7350 ha         1 4T2       0.166000
     48 H19          5.5170     9.7810     0.2050 ha         1 4T2       0.162000
     49 H20          7.1710    11.4860    -0.4320 ha         1 4T2       0.160000
     50 H21          8.1440    11.4850    -2.6920 ha         1 4T2       0.108000
     51 H22          8.8220    10.5910    -6.0110 hn         1 4T2       0.472800
     52 H24          7.4340     8.1630    -7.3760 ho         1 4T2       0.490000
     53 H25          8.1280    11.6430    -4.9710 hn         1 4T2       0.472800
     54 HAD3         9.3340    10.6650    -4.4600 hn         1 4T2       0.472800
@<TRIPOS>BOND
     1     4     2 1   
     2     3     2 1   
     3     2     1 1   
     4     2     5 1   
     5    13    12 1   
     6     5     6 1   
     7    12    10 1   
     8    11    10 2   
     9     7     6 2   
    10    10     9 1   
    11     6     8 1   
    12     8     9 1   
    13     9    14 1   
    14    14    15 ar  
    15    14    17 ar  
    16    15    16 ar  
    17    17    18 ar  
    18    16    19 ar  
    19    18    19 ar  
    20    19    20 1   
    21    20    22 ar  
    22    20    21 ar  
    23    22    23 ar  
    24    21    25 ar  
    25    23    24 ar  
    26    25    24 ar  
    27    25    26 1   
    28    26    28 2   
    29    26    27 1   
    30    28    29 1   
    31     1    30 1   
    32     1    31 1   
    33     1    32 1   
    34     3    33 1   
    35     3    34 1   
    36     3    35 1   
    37     4    36 1   
    38     4    37 1   
    39     4    38 1   
    40     8    39 1   
    41     9    40 1   
    42    12    41 1   
    43    13    42 1   
    44    15    43 1   
    45    16    44 1   
    46    17    45 1   
    47    18    46 1   
    48    21    47 1   
    49    22    48 1   
    50    23    49 1   
    51    24    50 1   
    52    27    51 1   
    53    29    52 1   
    54    27    53 1   
    55    54    27 1   
@<TRIPOS>SUBSTRUCTURE
     1 4T2         1 TEMP              0 ****  ****    0 ROOT
