@<TRIPOS>MOLECULE
molecule
   47    51     1     0     0
SMALL
bcc


@<TRIPOS>ATOM
      1 C4           0.0000     0.0000     0.0000 ca         1 4T3      -0.344700
      2 C5           1.3970     0.0000     0.0000 ca         1 4T3       0.539100
      3 C7           1.3510     0.0010    -2.3240 ca         1 4T3       0.890900
      4 C13         -3.1100     0.0010    -4.6940 cc         1 4T3      -0.030600
      5 C17         -2.9160     0.0010    -6.1880 cx         1 4T3      -0.080400
      6 C21          3.4970     0.0020    -3.2900 c3         1 4T3       0.185300
      7 C22          4.2290     0.1500    -4.6260 c3         1 4T3      -0.105900
      8 C24          2.3220    -1.0170    -5.7340 c3         1 4T3      -0.105900
      9 C1           1.9340     0.0000     1.2960 cd         1 4T3      -0.268800
     10 C2           1.0530    -0.0010     2.2850 cc         1 4T3      -0.036400
     11 S3          -0.5870    -0.0070     1.6560 ss         1 4T3      -0.041500
     12 N6           2.0300    -0.0000    -1.1960 nb         1 4T3      -0.805000
     13 N8           0.0240    -0.0000    -2.3550 nb         1 4T3      -0.813000
     14 C9          -0.6800     0.0000    -1.2300 ca         1 4T3       0.805200
     15 N10         -2.0650     0.0010    -1.2660 nu         1 4T3      -0.826600
     16 C11         -2.7330     0.0010    -2.4970 cd         1 4T3       0.577200
     17 C12         -2.1270     0.0010    -3.7640 cd         1 4T3      -0.348300
     18 N14         -4.2930     0.0060    -4.0450 na         1 4T3      -0.030600
     19 N16         -4.0340     0.0110    -2.6690 nc         1 4T3      -0.538800
     20 C18         -3.9470    -0.7500    -7.0340 cx         1 4T3      -0.127400
     21 C19         -3.9290     0.7800    -7.0310 cx         1 4T3      -0.127400
     22 N20          2.0460     0.0020    -3.5230 nh         1 4T3      -0.692300
     23 C23          3.8410    -1.0110    -5.5460 c3         1 4T3       0.091500
     24 C25          1.6440    -1.1310    -4.3660 c3         1 4T3       0.185300
     25 N26          4.4960    -0.8430    -6.8500 nz         1 4T3      -0.809600
     26 H1          -1.9080    -0.0100    -6.5860 hc         1 4T3       0.087700
     27 H2           3.7860    -0.9320    -2.8230 h1         1 4T3       0.080700
     28 H3           3.7570     0.8310    -2.6440 h1         1 4T3       0.080700
     29 H4           5.2990     0.1310    -4.4540 hc         1 4T3       0.071450
     30 H5           3.9480     1.0870    -5.0890 hc         1 4T3       0.071450
     31 H6           2.0380    -1.8620    -6.3480 hc         1 4T3       0.071450
     32 H7           2.0140    -0.0950    -6.2120 hc         1 4T3       0.071450
     33 H8           3.0020     0.0040     1.4770 ha         1 4T3       0.169000
     34 H9           1.3090     0.0030     3.3370 h4         1 4T3       0.188000
     35 H10         -2.5890     0.0100    -0.4130 hn         1 4T3       0.478800
     36 H11         -1.0640     0.0680    -3.9610 ha         1 4T3       0.190000
     37 H12         -5.1980     0.0120    -4.4720 hn         1 4T3       0.336700
     38 H13         -4.7590    -1.2090    -6.4820 hc         1 4T3       0.080950
     39 H14         -3.5620    -1.2210    -7.9310 hc         1 4T3       0.080950
     40 H15         -4.7290     1.2560    -6.4780 hc         1 4T3       0.080950
     41 H16         -3.5330     1.2440    -7.9260 hc         1 4T3       0.080950
     42 H17          4.1520    -1.9460    -5.0970 hx         1 4T3       0.115700
     43 H18          1.9460    -2.0570    -3.8910 h1         1 4T3       0.080700
     44 H19          0.5690    -1.1190    -4.4950 h1         1 4T3       0.080700
     45 H20          4.2050     0.0220    -7.2610 hn         1 4T3       0.453800
     46 H21          4.2390    -1.6000    -7.4520 hn         1 4T3       0.453800
     47 H263         5.4890    -0.8370    -6.7270 hn         1 4T3       0.453800
@<TRIPOS>BOND
     1    11    10 1
     2    11     1 1
     3    10     9 2
     4    19    18 1
     5    19    16 2
     6    15    16 1
     7    15    14 1
     8     1    14 ar
     9     1     2 ar
    10     9     2 1
    11    18     4 1
    12    16    17 1
    13    14    13 ar
    14     2    12 ar
    15     4    17 2
    16     4     5 1
    17    13     3 ar
    18    12     3 ar
    19     3    22 1
    20     5    21 1
    21     5    20 1
    22    22     6 1
    23    22    24 1
    24    21    20 1
    25     6     7 1
    26    24     8 1
    27     7    23 1
    28     8    23 1
    29    23    25 1
    30     5    26 1
    31     6    27 1
    32     6    28 1
    33     7    29 1
    34     7    30 1
    35     8    31 1
    36     8    32 1
    37     9    33 1
    38    10    34 1
    39    15    35 1
    40    17    36 1
    41    18    37 1
    42    20    38 1
    43    20    39 1
    44    21    40 1
    45    21    41 1
    46    23    42 1
    47    24    43 1
    48    24    44 1
    49    25    45 1
    50    25    46 1
    51    47    25 1
@<TRIPOS>SUBSTRUCTURE
     1 4T3         1 TEMP              0 ****  ****    0 ROOT
