@<TRIPOS>MOLECULE
molecule
   94    99     1     0     0
SMALL
bcc


@<TRIPOS>ATOM
      1 C1           0.0000     0.0000     0.0000 c3         1 4T4       0.101300
      2 C2           8.7560    -6.7110    -5.4170 ca         1 4T4       0.024400
      3 C3           8.3750    -7.2440    -4.1990 ca         1 4T4      -0.119000
      4 C4          12.0710    -4.6850    -1.4670 ca         1 4T4      -0.017400
      5 C5          12.2020    -4.5560    -0.0900 ca         1 4T4      -0.063000
      6 C6          11.7160    -3.4320     0.5470 ca         1 4T4      -0.213000
      7 C7          11.0960    -2.4300    -0.1890 ca         1 4T4       0.213600
      8 C8          10.9650    -2.5600    -1.5650 ca         1 4T4      -0.213000
      9 C9          11.4510    -3.6840    -2.2020 ca         1 4T4      -0.063000
     10 C10          9.9470    -0.2200    -0.2780 c3         1 4T4       0.245800
     11 C11          8.4480    -0.5010    -0.3870 c3         1 4T4      -0.099700
     12 C12          7.7870     0.5820    -1.2440 c3         1 4T4      -0.076400
     13 C13         11.7220    -7.0380    -2.1590 c3         1 4T4       0.223300
     14 C14         13.7710    -5.7850    -2.6710 c          1 4T4       0.696500
     15 C15         14.4070    -6.9420    -3.3760 c3         1 4T4      -0.101100
     16 C16         13.7840    -8.2410    -2.9530 ca         1 4T4      -0.078300
     17 C17         12.5290    -8.2850    -2.3850 ca         1 4T4      -0.089300
     18 C18         11.9860    -9.5040    -2.0070 ca         1 4T4      -0.181000
     19 C19         12.6940   -10.6770    -2.1980 ca         1 4T4       0.126100
     20 C20         13.9610   -10.6310    -2.7730 ca         1 4T4       0.126100
     21 C21         14.4990    -9.4130    -3.1490 ca         1 4T4      -0.188000
     22 C22         15.9590   -11.6540    -3.5600 c3         1 4T4       0.126700
     23 Cl1          7.6020    -6.5780    -6.7060 cl         1 4T4      -0.106400
     24 C23          9.2940    -7.3440    -3.1700 ca         1 4T4      -0.103000
     25 C24         10.7180    -6.8960    -3.2740 ca         1 4T4      -0.117300
     26 C25         11.1850    -6.3410    -4.4510 ca         1 4T4      -0.103000
     27 C26         10.0560    -6.2740    -5.6040 ca         1 4T4      -0.119000
     28 N1          12.5570    -5.8490    -2.1210 n          1 4T4      -0.386000
     29 O2          12.1560   -11.8690    -1.8260 os         1 4T4      -0.307900
     30 C27         10.8350   -11.8430    -1.2830 c3         1 4T4       0.135100
     31 C28         10.1740   -13.2080    -1.4830 c3         1 4T4      -0.105100
     32 C29         10.9030   -11.5220     0.2120 c3         1 4T4      -0.105100
     33 O3          14.3860    -4.7420    -2.5970 o          1 4T4      -0.632500
     34 N2          10.5980    -1.3190     0.4410 nh         1 4T4      -0.724000
     35 C30          6.2880     0.3010    -1.3530 c3         1 4T4      -0.076400
     36 C31          5.6650     0.3070     0.0440 c3         1 4T4       0.169500
     37 C32          6.3240    -0.7760     0.9010 c3         1 4T4      -0.076400
     38 C33          7.8250    -0.4960     1.0100 c3         1 4T4      -0.076400
     39 N3           4.2230     0.0000     0.0000 n3         1 4T4      -0.722600
     40 C34          3.5660     0.0000     1.3160 c3         1 4T4       0.143800
     41 C35          2.1560    -0.5730     1.1620 c3         1 4T4       0.113000
     42 N4           1.4600     0.0970     0.0660 n          1 4T4      -0.483800
     43 C36          2.0980     0.7950    -0.8800 c          1 4T4       0.702500
     44 C37          3.5880     0.9860    -0.8830 c3         1 4T4       0.081800
     45 O4           1.4450     1.2940    -1.7720 o          1 4T4      -0.653500
     46 C38         10.7310    -1.2630     1.9000 c3         1 4T4       0.220100
     47 H1          -0.2920    -0.3950    -0.9660 h1         1 4T4       0.043367
     48 H2          -0.4330     0.9840     0.1340 h1         1 4T4       0.043367
     49 H3          -0.3540    -0.6600     0.7820 h1         1 4T4       0.043367
     50 H5          12.6850    -5.3370     0.4840 ha         1 4T4       0.136000
     51 H6          11.8180    -3.3310     1.6200 ha         1 4T4       0.134500
     52 H7          10.4820    -1.7790    -2.1390 ha         1 4T4       0.134500
     53 H8          11.3490    -3.7850    -3.2760 ha         1 4T4       0.136000
     54 H9          10.3730    -0.1360    -1.2710 h1         1 4T4       0.053700
     55 H10         10.1030     0.7070     0.2610 h1         1 4T4       0.053700
     56 H11          8.2890    -1.4690    -0.8470 hc         1 4T4       0.068700
     57 H12          8.2280     0.5760    -2.2330 hc         1 4T4       0.043950
     58 H13          7.9400     1.5500    -0.7810 hc         1 4T4       0.043950
     59 H14         11.1970    -7.1270    -1.2160 h1         1 4T4       0.073700
     60 H15         14.2560    -6.8200    -4.4420 hc         1 4T4       0.085200
     61 H16         15.4590    -6.9660    -3.1180 hc         1 4T4       0.085200
     62 H17         10.9990    -9.5380    -1.5590 ha         1 4T4       0.146000
     63 H18         15.4850    -9.3750    -3.5960 ha         1 4T4       0.144000
     64 H19         15.8640   -11.2060    -4.5420 h1         1 4T4       0.041700
     65 H20         16.4350   -12.6230    -3.6500 h1         1 4T4       0.041700
     66 H21         16.5620   -11.0130    -2.9280 h1         1 4T4       0.041700
     67 H22          8.9950    -7.7620    -2.2160 ha         1 4T4       0.145000
     68 H23         12.2200    -6.0340    -4.5300 ha         1 4T4       0.145000
     69 H24         10.3550    -5.8560    -6.5580 ha         1 4T4       0.144000
     70 H25         10.2520   -11.0830    -1.7890 h1         1 4T4       0.043700
     71 H26         10.0720   -13.4090    -2.5430 hc         1 4T4       0.047367
     72 H27         10.7880   -13.9760    -1.0280 hc         1 4T4       0.047367
     73 H28          9.1950   -13.2070    -1.0200 hc         1 4T4       0.047367
     74 H29          9.9390   -11.1590     0.5470 hc         1 4T4       0.047367
     75 H30         11.1620   -12.4190     0.7620 hc         1 4T4       0.047367
     76 H31         11.6550   -10.7620     0.3840 hc         1 4T4       0.047367
     77 H32          5.8210     1.0690    -1.9580 hc         1 4T4       0.052200
     78 H33          6.1360    -0.6680    -1.8110 hc         1 4T4       0.052200
     79 H34          5.8170     1.2850     0.4830 h1         1 4T4       0.026700
     80 H35          6.1710    -1.7430     0.4390 hc         1 4T4       0.052200
     81 H36          5.8840    -0.7690     1.8910 hc         1 4T4       0.052200
     82 H37          7.9770     0.4740     1.4690 hc         1 4T4       0.043950
     83 H38          8.2910    -1.2640     1.6150 hc         1 4T4       0.043950
     84 H40          4.1540    -0.5820     2.0150 h1         1 4T4       0.046700
     85 H41          3.4690     1.0180     1.6730 h1         1 4T4       0.046700
     86 H42          1.6050    -0.4200     2.0820 h1         1 4T4       0.048200
     87 H43          2.2220    -1.6330     0.9480 h1         1 4T4       0.048200
     88 H44          3.9400     0.8390    -1.8970 h1         1 4T4       0.070200
     89 H45          3.8450     1.9840    -0.5500 h1         1 4T4       0.070200
     90 H46         10.1430    -2.0560     2.3460 h1         1 4T4       0.036700
     91 H47         11.7720    -1.3880     2.1730 h1         1 4T4       0.036700
     92 H48         10.3760    -0.3050     2.2580 h1         1 4T4       0.036700
     93 O1          14.6650   -11.7780    -2.9660 os         1 4T4      -0.311900
     94 H4           7.3550    -7.5790    -4.0490 ha         1 4T4       0.144000
@<TRIPOS>BOND
     1    45    43 2   
     2     1    42 1   
     3    43    42 1   
     4    43    44 1   
     5    42    41 1   
     6    33    14 2   
     7    44    39 1   
     8    15    14 1   
     9    15    16 1   
    10    14    28 1   
    11    41    40 1   
    12    37    38 1   
    13    37    36 1   
    14    39    40 1   
    15    39    36 1   
    16    21    16 ar  
    17    21    20 ar  
    18    16    17 ar  
    19     5     6 ar  
    20     5     4 ar  
    21    28     4 1   
    22    28    13 1   
    23    38    11 1   
    24    36    35 1   
    25    22    93 1   
    26     6     7 ar  
    27     4     9 ar  
    28    26    27 ar  
    29    26    25 ar  
    30    27     2 ar  
    31     7    34 1   
    32     7     8 ar  
    33    46    34 1   
    34     9     8 ar  
    35    20    93 1   
    36    20    19 ar  
    37    11    10 1   
    38    11    12 1   
    39    17    13 1   
    40    17    18 ar  
    41    13    25 1   
    42    35    12 1   
    43    34    10 1   
    44    25    24 ar  
    45     2    23 1   
    46     2     3 ar  
    47    18    19 ar  
    48    19    29 1   
    49    24     3 ar  
    50    29    30 1   
    51    30    32 1   
    52    30    31 1   
    53     1    47 1   
    54     1    48 1   
    55     1    49 1   
    56     3    94 1   
    57     5    50 1   
    58     6    51 1   
    59     8    52 1   
    60     9    53 1   
    61    10    54 1   
    62    10    55 1   
    63    11    56 1   
    64    12    57 1   
    65    12    58 1   
    66    13    59 1   
    67    15    60 1   
    68    15    61 1   
    69    18    62 1   
    70    21    63 1   
    71    22    64 1   
    72    22    65 1   
    73    22    66 1   
    74    24    67 1   
    75    26    68 1   
    76    27    69 1   
    77    30    70 1   
    78    31    71 1   
    79    31    72 1   
    80    31    73 1   
    81    32    74 1   
    82    32    75 1   
    83    32    76 1   
    84    35    77 1   
    85    35    78 1   
    86    36    79 1   
    87    37    80 1   
    88    37    81 1   
    89    38    82 1   
    90    38    83 1   
    91    40    84 1   
    92    40    85 1   
    93    41    86 1   
    94    41    87 1   
    95    44    88 1   
    96    44    89 1   
    97    46    90 1   
    98    46    91 1   
    99    46    92 1   
@<TRIPOS>SUBSTRUCTURE
     1 4T4         1 TEMP              0 ****  ****    0 ROOT
