@<TRIPOS>MOLECULE
4T5
   50    53     1     0     0
SMALL
bcc


@<TRIPOS>ATOM
      1 N3           0.0000     0.0000     0.0000 nb         1 4T5      -0.733000
      2 C4           1.3250     0.0000     0.0000 ca         1 4T5       0.753900
      3 C6           1.4100    -0.0010     2.3030 ca         1 4T5       0.534200
      4 C8           3.4650     0.0010    -1.2290 c3         1 4T5       0.182800
      5 C13          5.5540    -1.1780    -4.8300 c3         1 4T5      -0.085500
      6 C15          5.9680     0.1290    -4.1520 c3         1 4T5      -0.028400
      7 C24         -2.2120     0.1180    -1.3100 cc         1 4T5      -0.362300
      8 C26         -1.7720    -0.1640    -4.3240 cx         1 4T5      -0.087400
      9 C1           0.0300    -0.0010     2.3490 ca         1 4T5      -0.467600
     10 C2          -0.6770    -0.0010     1.1440 ca         1 4T5       0.568200
     11 N5           2.0200     0.0000     1.1280 nb         1 4T5      -0.745000
     12 N7           1.9990     0.0010    -1.2090 nu         1 4T5      -0.514900
     13 C9           3.9540     0.0020    -2.6790 c3         1 4T5      -0.074700
     14 C11          3.5400    -1.3060    -3.3570 c3         1 4T5      -0.012400
     15 C12          4.0300    -1.3060    -4.8070 c3         1 4T5      -0.028400
     16 C16          5.4780     0.1280    -2.7020 c3         1 4T5      -0.012400
     17 N17          6.0230    -1.1780    -6.2220 nz         1 4T5       0.076400
     18 N18         -2.0630    -0.0020     1.1410 nu         1 4T5      -0.250300
     19 C19         -2.7570     0.1140    -0.0620 cd         1 4T5      -0.169700
     20 N20         -4.1010     0.2440    -0.2050 na         1 4T5       0.419400
     21 N22         -4.3810     0.3290    -1.5750 nd         1 4T5      -0.639800
     22 C23         -3.2520     0.2540    -2.2320 cc         1 4T5       0.406600
     23 C25         -3.1000     0.3110    -3.7300 cx         1 4T5      -0.103000
     24 C27         -3.0310    -1.0190    -4.4840 cx         1 4T5      -0.087400
     25 H1           1.9870    -0.0010     3.2200 h4         1 4T5      -0.015900
     26 H2           3.8340    -0.8830    -0.7240 h1         1 4T5       0.033200
     27 H3           3.8330     0.8860    -0.7240 h1         1 4T5       0.033200
     28 H4           5.9920    -2.0130    -4.2970 hx         1 4T5       0.096700
     29 H7          -1.1580     0.0320    -1.5460 ha         1 4T5       0.183000
     30 H8          -1.4450     0.3570    -5.2150 hc         1 4T5       0.044700
     31 H9          -1.0450    -0.5320    -3.6090 hc         1 4T5       0.044700
     32 H10         -0.4930    -0.0020     3.2980 ha         1 4T5       0.133000
     33 H11          1.4870     0.0510    -2.0670 hn         1 4T5       0.299800
     34 H12          3.5160     0.8370    -3.2120 hc         1 4T5       0.040700
     35 H13          2.4600    -1.3940    -3.3420 hc         1 4T5       0.043200
     36 H14          3.9830    -2.1410    -2.8280 hc         1 4T5       0.043200
     37 H15          3.7390    -2.2330    -5.2850 hc         1 4T5       0.033700
     38 H16          3.5900    -0.4680    -5.3350 hc         1 4T5       0.033700
     39 H17          5.9170    -0.7100    -2.1750 hc         1 4T5       0.043200
     40 H18          5.7700     1.0560    -2.2240 hc         1 4T5       0.043200
     41 H19          5.7530    -2.0340    -6.6650 hn         1 4T5       0.224133
     42 H21          7.0210    -1.0950    -6.2380 hn         1 4T5       0.224133
     43 H22         -2.5650    -0.1140     1.9990 hn         1 4T5       0.283800
     44 H23         -4.7720     0.2730     0.5370 hn         1 4T5       0.149700
     45 H24         -3.5780     1.1160    -4.2750 hc         1 4T5       0.066700
     46 H25         -3.4740    -1.0200    -5.4730 hc         1 4T5       0.044700
     47 H26         -3.0740    -1.9090    -3.8670 hc         1 4T5       0.044700
     48 H5           5.5250     0.9640    -4.6810 hc         1 4T5       0.033700
     49 H173         5.5960    -0.4220    -6.7180 hn         1 4T5       0.224133
     50 H6           7.0470     0.2160    -4.1670 hc         1 4T5       0.033700
@<TRIPOS>BOND
     1     1     2 ar  
     2     1    10 ar  
     3     2    11 ar  
     4     2    12 1   
     5     3     9 ar  
     6     3    11 ar  
     7     3    25 1   
     8     4    12 1   
     9     4    13 1   
    10     4    26 1   
    11     4    27 1   
    12     5     6 1   
    13     5    15 1   
    14     5    17 1   
    15     5    28 1   
    16     6    16 1   
    17     6    48 1   
    18     6    50 1   
    19     7    19 2   
    20     7    22 1   
    21     7    29 1   
    22     8    23 1   
    23     8    24 1   
    24     8    30 1   
    25     8    31 1   
    26     9    10 ar  
    27     9    32 1   
    28    10    18 1   
    29    12    33 1   
    30    13    14 1   
    31    13    16 1   
    32    13    34 1   
    33    14    15 1   
    34    14    35 1   
    35    14    36 1   
    36    15    37 1   
    37    15    38 1   
    38    16    39 1   
    39    16    40 1   
    40    17    41 1   
    41    17    42 1   
    42    17    49 1   
    43    18    19 1   
    44    18    43 1   
    45    19    20 1   
    46    20    21 1   
    47    20    44 1   
    48    21    22 2   
    49    22    23 1   
    50    23    24 1   
    51    23    45 1   
    52    24    46 1   
    53    24    47 1   
@<TRIPOS>SUBSTRUCTURE
     1 4T5         1 TEMP              0 ****  ****    0 ROOT
