@<TRIPOS>MOLECULE
molecule
   44    48     1     0     0
SMALL
bcc


@<TRIPOS>ATOM
      1 C4           0.0000     0.0000     0.0000 ca         1 4T6      -0.096200
      2 C5           1.3890     0.0000     0.0000 ca         1 4T6       0.041400
      3 C6           2.0720     0.0000     1.1990 ca         1 4T6      -0.096300
      4 C7           3.5790     0.0000     1.2010 c3         1 4T6       0.298100
      5 C13          7.1520     3.1180     0.6580 ca         1 4T6       0.769200
      6 C17          5.2730     5.2950     0.1470 cc         1 4T6      -0.330300
      7 C22          3.2760     6.8110    -0.3150 cx         1 4T6      -0.065400
      8 C24          2.8560     7.8010    -1.4030 cx         1 4T6      -0.136400
      9 C1           1.3810    -0.0000     2.4020 ca         1 4T6      -0.125000
     10 C2           0.0150    -0.0000     2.4210 ca         1 4T6      -0.069000
     11 C3          -0.6990    -0.0070     1.2190 ca         1 4T6       0.106400
     12 N8           4.0680     1.3600     0.9620 nu         1 4T6      -0.894900
     13 C9           5.4290     1.6100     0.9220 ca         1 4T6       0.974900
     14 N10          6.2750     0.6060     1.0990 nb         1 4T6      -0.834000
     15 C11          7.5850     0.8050     1.0660 ca         1 4T6       0.527200
     16 C12          8.0690     2.0790     0.8440 ca         1 4T6      -0.497600
     17 N14          5.8520     2.8450     0.7040 nb         1 4T6      -0.853000
     18 C16          6.6710     5.4250     0.1400 cd         1 4T6       0.587200
     19 C18          4.7430     6.4920    -0.1930 cd         1 4T6      -0.037600
     20 N19          5.7630     7.3510    -0.4020 na         1 4T6      -0.044600
     21 N21          6.9640     6.6600    -0.1930 nc         1 4T6      -0.563800
     22 C23          2.8240     8.2210     0.0680 cx         1 4T6      -0.136400
     23 Cl1          2.2610    -0.0000    -1.5010 cl         1 4T6      -0.102400
     24 N26         -0.9620    -0.0000    -0.9910 na         1 4T6      -0.260300
     25 C27         -2.1760    -0.0000    -0.3750 cd         1 4T6       0.436700
     26 N28         -2.0220    -0.0100     0.9160 nc         1 4T6      -0.600100
     27 H1           3.9390    -0.3490     2.1610 h1         1 4T6       0.064700
     28 H2           3.9410    -0.6560     0.4190 h1         1 4T6       0.064700
     29 H3           4.7160     4.4160     0.4510 ha         1 4T6       0.198000
     30 H4           2.5520     6.0320    -0.1080 hc         1 4T6       0.100700
     31 H5           3.6640     8.2190    -1.9910 hc         1 4T6       0.076950
     32 H6           1.8900     7.6140    -1.8570 hc         1 4T6       0.076950
     33 H7           1.9300    -0.0000     3.3360 ha         1 4T6       0.147000
     34 H8          -0.5150    -0.0010     3.3660 ha         1 4T6       0.150000
     35 H9           3.4180     2.1120     0.8420 hn         1 4T6       0.458800
     36 H10          8.2680    -0.0220     1.2130 h4         1 4T6       0.027100
     37 H11          9.1350     2.2690     0.8120 ha         1 4T6       0.141000
     38 H12          8.5660     4.6320     0.5230 hn         1 4T6       0.467800
     39 H13          5.6770     8.3130    -0.6670 hn         1 4T6       0.326700
     40 H14          1.8380     8.2920     0.5120 hc         1 4T6       0.076950
     41 H15          3.6120     8.8970     0.3780 hc         1 4T6       0.076950
     42 H16         -0.7970     0.0070    -1.9780 hn         1 4T6       0.312700
     43 H17         -3.1310     0.0070    -0.8870 h5         1 4T6       0.077800
     44 N15          7.5930     4.4130     0.4370 nu         1 4T6      -0.843600
@<TRIPOS>BOND
     1    16    15 ar  
     2    16     5 ar  
     3    21    18 2   
     4    21    20 1   
     5    44     5 1   
     6    44    18 1   
     7    15    14 ar  
     8     5    17 ar  
     9    18     6 1   
    10    20    19 1   
    11    14    13 ar  
    12    17    13 ar  
    13     6    19 2   
    14    19     7 1   
    15    13    12 1   
    16     7     8 1   
    17     7    22 1   
    18    12     4 1   
    19     8    22 1   
    20     9    10 ar  
    21     9     3 ar  
    22     4     3 1   
    23    10    11 ar  
    24     3     2 ar  
    25    11     1 ar  
    26    11    26 1   
    27     2     1 ar  
    28     2    23 1   
    29     1    24 1   
    30    26    25 2   
    31    24    25 1   
    32     4    27 1   
    33     4    28 1   
    34     6    29 1   
    35     7    30 1   
    36     8    31 1   
    37     8    32 1   
    38     9    33 1   
    39    10    34 1   
    40    12    35 1   
    41    15    36 1   
    42    16    37 1   
    43    44    38 1   
    44    20    39 1   
    45    22    40 1   
    46    22    41 1   
    47    24    42 1   
    48    25    43 1   
@<TRIPOS>SUBSTRUCTURE
     1 4T6         1 TEMP              0 ****  ****    0 ROOT
