@<TRIPOS>MOLECULE
4T7
   26    27     1     0     0
SMALL
bcc


@<TRIPOS>ATOM
      1 CAI         0.0090   -0.0220   -0.0750 ca        1 4T7     -0.117000
      2 CAM         1.4280   -0.0420   -0.0450 ca        1 4T7     -0.039000
      3 CAG         2.1470   -0.1460    1.1780 ca        1 4T7     -0.117000
      4 CAD         3.5190   -0.1620    1.1800 ca        1 4T7     -0.129000
      5 CAC         4.2380   -0.0740   -0.0370 ca        1 4T7     -0.126000
      6 CAF         3.5700    0.0290   -1.2320 ca        1 4T7     -0.118000
      7 CAL         2.1480    0.0480   -1.2640 ca        1 4T7     -0.033000
      8 CAH         1.4270    0.1560   -2.4840 ca        1 4T7     -0.124000
      9 CAE         0.0550    0.1690   -2.4900 ca        1 4T7     -0.099000
     10 CAK        -0.6680    0.0760   -1.2720 ca        1 4T7     -0.083300
     11 CAN        -2.1670    0.0860   -1.2730 c3        1 4T7      0.191400
     12 OAB        -2.6310    0.5720   -2.5260 oh        1 4T7     -0.599800
     13 CAJ        -2.7080   -1.3320   -1.0230 c3        1 4T7      0.092400
     14 OAA        -4.1210   -1.2090   -0.9850 oh        1 4T7     -0.615800
     15 H1         -0.5400   -0.0850    0.8770 ha        1 4T7      0.132000
     16 H2          1.5800   -0.2130    2.1180 ha        1 4T7      0.131000
     17 H3          4.0780   -0.2420    2.1240 ha        1 4T7      0.132000
     18 H4          5.3380   -0.0880   -0.0090 ha        1 4T7      0.132000
     19 H5          4.1190    0.0990   -2.1830 ha        1 4T7      0.133000
     20 H6          1.9920    0.2310   -3.4260 ha        1 4T7      0.134000
     21 H7         -0.5100    0.2610   -3.4310 ha        1 4T7      0.156000
     22 H8         -2.5460    0.7690   -0.4570 h1        1 4T7      0.055700
     23 H9         -3.5940    0.4820   -2.5070 ho        1 4T7      0.421000
     24 H10        -2.3980   -2.0180   -1.8540 h1        1 4T7      0.040200
     25 H11        -2.3260   -1.7230   -0.0440 h1        1 4T7      0.040200
     26 H12        -4.4780   -2.1030   -0.9320 ho        1 4T7      0.409000
@<TRIPOS>BOND
     1    1    2 ar  
     2    1   10 ar  
     3    1   15 1   
     4    2    3 ar  
     5    2    7 ar  
     6    3    4 ar  
     7    3   16 1   
     8    4    5 ar  
     9    4   17 1   
    10    5    6 ar  
    11    5   18 1   
    12    6    7 ar  
    13    6   19 1   
    14    7    8 ar  
    15    8    9 ar  
    16    8   20 1   
    17    9   10 ar  
    18    9   21 1   
    19   10   11 1   
    20   11   12 1   
    21   11   13 1   
    22   11   22 1   
    23   12   23 1   
    24   13   14 1   
    25   13   24 1   
    26   13   25 1   
    27   14   26 1   
@<TRIPOS>SUBSTRUCTURE
     1 4T7         1 TEMP              0 ****  ****    0 ROOT
