@<TRIPOS>MOLECULE
molecule
   26    27     1     0     0
SMALL
bcc


@<TRIPOS>ATOM
      1 CAI          0.0000     0.0000     0.0000 ca         1 4T7      -0.110000
      2 CAM          1.4060     0.0000     0.0000 ca         1 4T7      -0.038000
      3 CAG          2.1350     0.0000     1.2020 ca         1 4T7      -0.115000
      4 CAD          3.4950    -0.0010     1.1630 ca         1 4T7      -0.127000
      5 CAC          4.1790    -0.0020    -0.0510 ca         1 4T7      -0.124000
      6 CAF          3.5060    -0.0020    -1.2340 ca         1 4T7      -0.117000
      7 CAL          2.1010    -0.0010    -1.2350 ca         1 4T7      -0.031000
      8 CAH          1.3710    -0.0020    -2.4350 ca         1 4T7      -0.122000
      9 CAE          0.0110    -0.0020    -2.3980 ca         1 4T7      -0.100000
     10 CAK         -0.6730     0.0000    -1.1840 ca         1 4T7      -0.107300
     11 CAN         -2.1800    -0.0070    -1.1810 c3         1 4T7       0.197400
     12 OAB         -2.6620     0.7660    -2.2820 oh         1 4T7      -0.595800
     13 CAJ         -2.6840    -1.4470    -1.3080 c3         1 4T7       0.135400
     14 OAA         -4.1080    -1.4640    -1.1880 oh         1 4T7      -0.610800
     15 H1          -0.5450     0.0010     0.9360 ha         1 4T7       0.132000
     16 H2           1.6170     0.0000     2.1530 ha         1 4T7       0.132000
     17 H3           4.0550    -0.0010     2.0900 ha         1 4T7       0.128000
     18 H4           5.2620    -0.0030    -0.0530 ha         1 4T7       0.129000
     19 H5           4.0510    -0.0020    -2.1700 ha         1 4T7       0.133000
     20 H6           1.8890    -0.0030    -3.3870 ha         1 4T7       0.134000
     21 H7          -0.5480    -0.0010    -3.3260 ha         1 4T7       0.148000
     22 H8          -2.5410     0.4210    -0.2530 h1         1 4T7       0.047700
     23 H9          -3.1140     1.5270    -1.9570 ho         1 4T7       0.409000
     24 H10         -2.2480    -2.0530    -0.5230 h1         1 4T7       0.033700
     25 H11         -2.3980    -1.8460    -2.2740 h1         1 4T7       0.033700
     26 H12         -4.4120    -2.3570    -1.1820 ho         1 4T7       0.404000
@<TRIPOS>BOND
     1     5     6 ar  
     2     5     4 ar  
     3     6     7 ar  
     4     4     3 ar  
     5     7     8 ar  
     6     7     2 ar  
     7     8     9 ar  
     8     3     2 ar  
     9     2     1 ar  
    10     9    10 ar  
    11     1    10 ar  
    12    10    11 1   
    13    11    13 1   
    14    11    12 1   
    15    13    14 1   
    16     1    15 1   
    17     3    16 1   
    18     4    17 1   
    19     5    18 1   
    20     6    19 1   
    21     8    20 1   
    22     9    21 1   
    23    11    22 1   
    24    12    23 1   
    25    13    24 1   
    26    13    25 1   
    27    14    26 1   
@<TRIPOS>SUBSTRUCTURE
     1 4T7         1 TEMP              0 ****  ****    0 ROOT
