@<TRIPOS>MOLECULE
molecule
   42    45     1     0     0
SMALL
bcc


@<TRIPOS>ATOM
      1 C3           0.0000     0.0000     0.0000 c3         1 4T9       0.128700
      2 O1           1.4290     0.0000     0.0000 os         1 4T9      -0.316900
      3 C2           2.0460     0.0000     1.2140 ca         1 4T9       0.095100
      4 C4           1.2920     0.0010     2.3740 ca         1 4T9      -0.174000
      5 C5           1.9170     0.0010     3.6070 ca         1 4T9      -0.122000
      6 C6           3.3040     0.0000     3.6840 ca         1 4T9       0.163600
      7 C17          4.0630    -0.0000     2.5210 ca         1 4T9      -0.228000
      8 C1           3.4360    -0.0060     1.2860 ca         1 4T9       0.131100
      9 O            4.1780    -0.0130     0.1470 os         1 4T9      -0.312900
     10 C            5.5980    -0.0190     0.2970 c3         1 4T9       0.128700
     11 N            3.9360     0.0010     4.9320 nu         1 4T9      -0.778300
     12 C7           3.4070     0.7520     5.9800 ca         1 4T9       0.707200
     13 C16          3.9710     0.6480     7.2420 ca         1 4T9      -0.345300
     14 C10          3.4350     1.4010     8.2810 ca         1 4T9       0.029800
     15 N2           3.7300     1.5440     9.6150 na         1 4T9      -0.178400
     16 C11          2.8590     2.4420    10.1920 cc         1 4T9       0.038700
     17 C15          1.9890     2.8980     9.2580 cd         1 4T9      -0.177200
     18 C9           2.3340     2.2400     7.9980 ca         1 4T9      -0.271100
     19 C8           1.8280     2.2850     6.7000 ca         1 4T9       0.508200
     20 N1           2.3750     1.5550     5.7490 nb         1 4T9      -0.757000
     21 C12          2.8720     2.8470    11.6150 cc         1 4T9      -0.261100
     22 C14          2.0200     3.7350    12.2100 cd         1 4T9      -0.089300
     23 N4           2.3670     3.8230    13.5110 na         1 4T9      -0.037600
     24 N3           3.4570     2.9740    13.7320 nd         1 4T9      -0.503800
     25 C13          3.7610     2.3840    12.6060 cc         1 4T9       0.340200
     26 H31C        -0.3610     0.8850     0.5100 h1         1 4T9       0.038367
     27 H32C        -0.3610    -0.8840     0.5110 h1         1 4T9       0.038367
     28 H33C        -0.3610    -0.0000    -1.0210 h1         1 4T9       0.038367
     29 H4           0.2100     0.0010     2.3170 ha         1 4T9       0.140000
     30 H5           1.3250     0.0010     4.5150 ha         1 4T9       0.154000
     31 H17          5.1450    -0.0030     2.5800 ha         1 4T9       0.138000
     32 H            4.7500    -0.5610     5.0810 hn         1 4T9       0.451800
     33 HC1          6.0640    -0.0260    -0.6810 h1         1 4T9       0.038700
     34 HC2          5.9080     0.8670     0.8380 h1         1 4T9       0.038700
     35 HC3          5.9000    -0.9030     0.8470 h1         1 4T9       0.038700
     36 H16          4.9230     0.1490     7.3710 ha         1 4T9       0.131000
     37 H2           4.4680     1.0670    10.0950 hn         1 4T9       0.297700
     38 H15          1.1900     3.6120     9.4150 ha         1 4T9       0.151000
     39 H8           0.9870     2.9280     6.4700 h4         1 4T9       0.025100
     40 H14          1.2120     4.2700    11.7250 h4         1 4T9       0.179000
     41 H13          4.5610     1.6680    12.4590 h4         1 4T9       0.046100
     42 HA           1.9230     4.3980    14.1990 hn         1 4T9       0.334700
@<TRIPOS>BOND
     1     1     2 1   
     2     2     3 1   
     3     3     4 ar  
     4     3     8 ar  
     5     4     5 ar  
     6     5     6 ar  
     7     6     7 ar  
     8     6    11 1   
     9     7     8 ar  
    10     8     9 1   
    11     9    10 1   
    12    11    12 1   
    13    12    13 ar  
    14    12    20 ar  
    15    13    14 ar  
    16    14    15 1   
    17    14    18 ar  
    18    15    16 1   
    19    16    17 2   
    20    16    21 1   
    21    17    18 1   
    22    18    19 ar  
    23    19    20 ar  
    24    21    22 2   
    25    21    25 1   
    26    22    23 1   
    27    23    24 1   
    28    24    25 2   
    29     1    26 1   
    30     1    27 1   
    31     1    28 1   
    32     4    29 1   
    33     5    30 1   
    34     7    31 1   
    35    11    32 1   
    36    10    33 1   
    37    10    34 1   
    38    10    35 1   
    39    13    36 1   
    40    15    37 1   
    41    17    38 1   
    42    19    39 1   
    43    22    40 1   
    44    25    41 1   
    45    23    42 1   
@<TRIPOS>SUBSTRUCTURE
     1 4T9         1 TEMP              0 ****  ****    0 ROOT
