@<TRIPOS>MOLECULE
4T9
   42    45     1     0     0
SMALL
bcc


@<TRIPOS>ATOM
      1 C3           0.0000     0.0000     0.0000 c3         1 4T9       0.241700
      2 O1           1.4290     0.0000     0.0000 os         1 4T9      -0.295900
      3 C2           2.0460     0.0000     1.2140 ca         1 4T9       0.098100
      4 C4           1.2920     0.0010     2.3740 ca         1 4T9      -0.158000
      5 C5           1.9170     0.0010     3.6070 ca         1 4T9      -0.100000
      6 C6           3.3040     0.0000     3.6840 ca         1 4T9       0.012600
      7 C17          4.0630    -0.0000     2.5210 ca         1 4T9      -0.216000
      8 C1           3.4360    -0.0060     1.2860 ca         1 4T9       0.135100
      9 O            4.1780    -0.0130     0.1470 os         1 4T9      -0.292900
     10 C            5.5980    -0.0190     0.2970 c3         1 4T9       0.241700
     11 N            3.9360     0.0010     4.9320 nu         1 4T9      -0.323300
     12 C7           3.4070     0.7520     5.9800 ca         1 4T9       0.513200
     13 C16          3.9710     0.6480     7.2420 ca         1 4T9      -0.318300
     14 C10          3.4350     1.4010     8.2810 ca         1 4T9      -0.156200
     15 N2           3.7300     1.5440     9.6150 na         1 4T9       0.359600
     16 C11          2.8590     2.4420    10.1920 cc         1 4T9      -0.143300
     17 C15          1.9890     2.8980     9.2580 cd         1 4T9      -0.137200
     18 C9           2.3340     2.2400     7.9980 ca         1 4T9      -0.272100
     19 C8           1.8280     2.2850     6.7000 ca         1 4T9       0.505200
     20 N1           2.3750     1.5550     5.7490 nb         1 4T9      -0.651000
     21 C12          2.8720     2.8470    11.6150 cc         1 4T9      -0.250100
     22 C14          2.0200     3.7350    12.2100 cd         1 4T9      -0.247300
     23 N4           2.3670     3.8230    13.5110 na         1 4T9       0.460400
     24 N3           3.4570     2.9740    13.7320 nd         1 4T9      -0.655800
     25 C13          3.7610     2.3840    12.6060 cc         1 4T9       0.393200
     26 H31C        -0.3610     0.8850     0.5100 h1         1 4T9      -0.004633
     27 H32C        -0.3610    -0.8840     0.5110 h1         1 4T9      -0.004633
     28 H33C        -0.3610    -0.0000    -1.0210 h1         1 4T9      -0.004633
     29 H4           0.2100     0.0010     2.3170 ha         1 4T9       0.120000
     30 H5           1.3250     0.0010     4.5150 ha         1 4T9       0.129000
     31 H17          5.1450    -0.0030     2.5800 ha         1 4T9       0.123000
     32 H            4.7500    -0.5610     5.0810 hn         1 4T9       0.282800
     33 HC1          6.0640    -0.0260    -0.6810 h1         1 4T9      -0.004633
     34 HC2          5.9080     0.8670     0.8380 h1         1 4T9      -0.004633
     35 HC3          5.9000    -0.9030     0.8470 h1         1 4T9      -0.004633
     36 H16          4.9230     0.1490     7.3710 ha         1 4T9       0.114000
     37 H2           4.4680     1.0670    10.0950 hn         1 4T9       0.115700
     38 H15          1.1900     3.6120     9.4150 ha         1 4T9       0.127000
     39 H8           0.9870     2.9280     6.4700 h4         1 4T9      -0.024900
     40 H14          1.2120     4.2700    11.7250 h4         1 4T9       0.152000
     41 H13          4.5610     1.6680    12.4590 h4         1 4T9       0.000100
     42 HA           1.9230     4.3980    14.1990 hn         1 4T9       0.148700
@<TRIPOS>BOND
     1     1     2 1   
     2     1    26 1   
     3     1    27 1   
     4     1    28 1   
     5     2     3 1   
     6     3     4 ar  
     7     3     8 ar  
     8     4     5 ar  
     9     4    29 1   
    10     5     6 ar  
    11     5    30 1   
    12     6     7 ar  
    13     6    11 1   
    14     7     8 ar  
    15     7    31 1   
    16     8     9 1   
    17     9    10 1   
    18    10    33 1   
    19    10    34 1   
    20    10    35 1   
    21    11    12 1   
    22    11    32 1   
    23    12    13 ar  
    24    12    20 ar  
    25    13    14 ar  
    26    13    36 1   
    27    14    15 1   
    28    14    18 ar  
    29    15    16 1   
    30    15    37 1   
    31    16    17 2   
    32    16    21 1   
    33    17    18 1   
    34    17    38 1   
    35    18    19 ar  
    36    19    20 ar  
    37    19    39 1   
    38    21    22 2   
    39    21    25 1   
    40    22    23 1   
    41    22    40 1   
    42    23    24 1   
    43    23    42 1   
    44    24    25 2   
    45    25    41 1   
@<TRIPOS>SUBSTRUCTURE
     1 4T9         1 TEMP              0 ****  ****    0 ROOT
