@<TRIPOS>MOLECULE
molecule
   20    20     1     0     0
SMALL
bcc


@<TRIPOS>ATOM
      1 S1           0.0000     0.0000     0.0000 ss         1 4TB      -0.247800
      2 C2           1.7840     0.0000     0.0000 cc         1 4TB       0.065600
      3 C3           2.0650     0.0000     1.3270 cd         1 4TB      -0.209000
      4 C4           1.0200     0.0110     2.2310 cd         1 4TB      -0.161000
      5 C5          -0.2520     0.0090     1.7670 cc         1 4TB      -0.073100
      6 C6           2.7330    -0.0060    -1.1700 c3         1 4TB      -0.010100
      7 C7           3.0540    -1.4500    -1.5600 c3         1 4TB      -0.060400
      8 C8           4.0170    -1.4560    -2.7480 c3         1 4TB      -0.184400
      9 C9           4.3340    -2.8780    -3.1320 c          1 4TB       0.891600
     10 O1           5.1650    -3.1300    -4.1550 o          1 4TB      -0.854300
     11 O2           3.8380    -3.7940    -2.5180 o          1 4TB      -0.854300
     12 H3           3.0920     0.0000     1.6720 ha         1 4TB       0.142000
     13 H4           1.2160     0.0140     3.2970 ha         1 4TB       0.126000
     14 H5          -1.1820     0.0140     2.3230 h4         1 4TB       0.172000
     15 H61          2.2740     0.5010    -2.0100 hc         1 4TB       0.047700
     16 H62          3.6480     0.5050    -0.8960 hc         1 4TB       0.047700
     17 H71          3.5140    -1.9570    -0.7200 hc         1 4TB       0.054200
     18 H72          2.1390    -1.9620    -1.8340 hc         1 4TB       0.054200
     19 H81          4.9310    -0.9440    -2.4750 hc         1 4TB       0.027200
     20 H82          3.5570    -0.9500    -3.5880 hc         1 4TB       0.027200
@<TRIPOS>BOND
     1     1     2 1
     2     1     5 1
     3     2     3 2
     4     2     6 1
     5     3     4 1
     6     3    12 1
     7     4     5 2
     8     4    13 1
     9     5    14 1
    10     6     7 1
    11     6    15 1
    12     6    16 1
    13     7     8 1
    14     7    17 1
    15     7    18 1
    16     8     9 1
    17     8    19 1
    18     8    20 1
    19     9    10 1
    20     9    11 1
@<TRIPOS>SUBSTRUCTURE
     1 4TB         1 TEMP              0 ****  ****    0 ROOT
