@<TRIPOS>MOLECULE
4TB
   20    20     1     0     0
SMALL
bcc


@<TRIPOS>ATOM
      1 S1          0.0290    0.1970    0.1110 ss        1 4TB     -0.033800
      2 C2          1.7040   -0.0050    0.0220 cc        1 4TB     -0.049400
      3 C3          2.2530   -0.0750    1.2860 cd        1 4TB     -0.177000
      4 C4          1.2620    0.0480    2.3100 cd        1 4TB     -0.153000
      5 C5          0.0000    0.2050    1.7830 cc        1 4TB     -0.190100
      6 C6          2.4270   -0.0830   -1.2570 c3        1 4TB     -0.020100
      7 C7          3.0660   -1.4420   -1.4940 c3        1 4TB     -0.058400
      8 C8          3.8940   -1.4410   -2.7550 c3        1 4TB     -0.198400
      9 C9          4.3660   -2.8640   -3.1110 c         1 4TB      0.909600
     10 O1          5.5910   -3.0270   -3.3770 o         1 4TB     -0.849800
     11 O2          3.5070   -3.7920   -3.1400 o         1 4TB     -0.849800
     12 H3          3.3160   -0.2180    1.4920 ha        1 4TB      0.156000
     13 H4          1.5000    0.0130    3.3740 ha        1 4TB      0.138000
     14 H5         -0.9180    0.3150    2.3530 h4        1 4TB      0.155000
     15 H61         3.2300    0.7060   -1.2700 hc        1 4TB      0.041200
     16 H62         1.7280    0.1470   -2.1070 hc        1 4TB      0.041200
     17 H71         2.2740   -2.2330   -1.5800 hc        1 4TB      0.050200
     18 H72         3.7100   -1.7070   -0.6170 hc        1 4TB      0.050200
     19 H81         3.2860   -1.0580   -3.6140 hc        1 4TB      0.019200
     20 H82         4.7840   -0.7740   -2.6370 hc        1 4TB      0.019200
@<TRIPOS>BOND
     1    1    2 1   
     2    1    5 1   
     3    2    3 2   
     4    2    6 1   
     5    3    4 1   
     6    3   12 1   
     7    4    5 2   
     8    4   13 1   
     9    5   14 1   
    10    6    7 1   
    11    6   15 1   
    12    6   16 1   
    13    7    8 1   
    14    7   17 1   
    15    7   18 1   
    16    8    9 1   
    17    8   19 1   
    18    8   20 1   
    19    9   10 1   
    20    9   11 1   
@<TRIPOS>SUBSTRUCTURE
     1 4TB         1 TEMP              0 ****  ****    0 ROOT
