@<TRIPOS>MOLECULE
4TD
   61    60     1     0     0
SMALL
bcc


@<TRIPOS>ATOM
      1 C1          0.0380   -0.0360   -0.0360 c3        1 4TD     -0.049000
      2 C2          1.5700   -0.0670    0.0190 c3        1 4TD      0.141650
      3 C4          3.4620    0.0490   -1.4000 c3        1 4TD      0.104900
      4 C5          3.8370   -0.0710   -2.8810 c3        1 4TD      0.142100
      5 C6          3.2790    1.0880   -3.6830 c3        1 4TD     -0.128100
      6 C8         -0.4810   -0.0260    1.4050 c3        1 4TD      0.141650
      7 C10        -2.5000   -0.0020    2.6420 c3        1 4TD      0.104900
      8 C11        -4.0090    0.1670    2.4340 c3        1 4TD      0.142100
      9 C12        -4.6000   -1.0260    1.7080 c3        1 4TD     -0.128100
     10 C14        -0.4410    1.2110   -0.7870 c3        1 4TD      0.141650
     11 C16        -0.3480    3.5720   -0.7040 c3        1 4TD      0.104900
     12 C17         0.2900    4.6990    0.1170 c3        1 4TD      0.142100
     13 C18        -0.7420    5.7240    0.5480 c3        1 4TD     -0.128100
     14 C20        -0.4930   -1.2640   -0.7840 c3        1 4TD      0.141650
     15 C22        -0.4420   -3.6300   -0.7210 c3        1 4TD      0.104900
     16 C23         0.0220   -4.7780    0.1830 c3        1 4TD      0.142100
     17 C24         1.5360   -4.8450    0.2510 c3        1 4TD     -0.128100
     18 O25        -0.5440   -4.6550    1.4760 oh        1 4TD     -0.599800
     19 O21        -0.0440   -2.4210   -0.0770 os        1 4TD     -0.436600
     20 O15         0.0410    2.3510   -0.0750 os        1 4TD     -0.436600
     21 O19         1.2700    5.2890   -0.7330 oh        1 4TD     -0.599800
     22 O9         -1.9070    0.0160    1.3450 os        1 4TD     -0.436600
     23 O13        -4.2850    1.3750    1.7460 oh        1 4TD     -0.599800
     24 O3          2.0440   -0.0920   -1.3280 os        1 4TD     -0.436600
     25 O7          3.4060   -1.3140   -3.4060 oh        1 4TD     -0.599800
     26 H1          1.9190   -0.9930    0.5490 h1        1 4TD      0.044700
     27 H2          1.9510    0.8510    0.5400 h1        1 4TD      0.044700
     28 H3          3.9510   -0.7690   -0.8070 h1        1 4TD      0.041075
     29 H4          3.7670    1.0480   -0.9950 h1        1 4TD      0.041075
     30 H5          4.9600   -0.1090   -2.9670 h1        1 4TD      0.069200
     31 H6          3.7530    2.0440   -3.3570 hc        1 4TD      0.046533
     32 H7          3.4800    0.9310   -4.7690 hc        1 4TD      0.046533
     33 H8          2.1750    1.1650   -3.5290 hc        1 4TD      0.046533
     34 H9         -0.1560   -0.9600    1.9380 h1        1 4TD      0.044700
     35 H10        -0.1020    0.8830    1.9450 h1        1 4TD      0.044700
     36 H11        -2.2770   -0.9770    3.1470 h1        1 4TD      0.041075
     37 H12        -2.0950    0.8470    3.2540 h1        1 4TD      0.041075
     38 H13        -4.5000    0.3030    3.4390 h1        1 4TD      0.069200
     39 H14        -5.6780   -0.8410    1.4870 hc        1 4TD      0.046533
     40 H15        -4.5080   -1.9420    2.3380 hc        1 4TD      0.046533
     41 H16        -4.0590   -1.1960    0.7460 hc        1 4TD      0.046533
     42 H17        -0.0240    1.2140   -1.8290 h1        1 4TD      0.044700
     43 H18        -1.5630    1.2340   -0.8150 h1        1 4TD      0.044700
     44 H19         0.0270    3.5950   -1.7620 h1        1 4TD      0.041075
     45 H20        -1.4670    3.6540   -0.6970 h1        1 4TD      0.041075
     46 H21         0.8010    4.2630    1.0220 h1        1 4TD      0.069200
     47 H22        -0.2540    6.5380    1.1350 hc        1 4TD      0.046533
     48 H23        -1.2360    6.1790   -0.3430 hc        1 4TD      0.046533
     49 H24        -1.5190    5.2380    1.1850 hc        1 4TD      0.046533
     50 H25        -0.0880   -1.2820   -1.8300 h1        1 4TD      0.044700
     51 H26        -1.6160   -1.2500   -0.7990 h1        1 4TD      0.044700
     52 H27        -1.5580   -3.6490   -0.8300 h1        1 4TD      0.041075
     53 H28         0.0420   -3.7020   -1.7290 h1        1 4TD      0.041075
     54 H29        -0.4010   -5.7440   -0.2130 h1        1 4TD      0.069200
     55 H30         1.8490   -5.6250    0.9860 hc        1 4TD      0.046533
     56 H31         1.9490   -3.8590    0.5730 hc        1 4TD      0.046533
     57 H32         1.9540   -5.0980   -0.7510 hc        1 4TD      0.046533
     58 H33        -0.2710   -3.7950    1.8230 ho        1 4TD      0.407500
     59 H34         1.6590    6.0210   -0.2420 ho        1 4TD      0.407500
     60 H35        -3.8090    1.3350    0.9060 ho        1 4TD      0.407500
     61 H36         2.4500   -1.3580   -3.2770 ho        1 4TD      0.407500
@<TRIPOS>BOND
     1    1    2 1   
     2    1    6 1   
     3    1   10 1   
     4    1   14 1   
     5    2   24 1   
     6    2   26 1   
     7    2   27 1   
     8    3    4 1   
     9    3   24 1   
    10    3   28 1   
    11    3   29 1   
    12    4    5 1   
    13    4   25 1   
    14    4   30 1   
    15    5   31 1   
    16    5   32 1   
    17    5   33 1   
    18    6   22 1   
    19    6   34 1   
    20    6   35 1   
    21    7    8 1   
    22    7   22 1   
    23    7   36 1   
    24    7   37 1   
    25    8    9 1   
    26    8   23 1   
    27    8   38 1   
    28    9   39 1   
    29    9   40 1   
    30    9   41 1   
    31   10   20 1   
    32   10   42 1   
    33   10   43 1   
    34   11   12 1   
    35   11   20 1   
    36   11   44 1   
    37   11   45 1   
    38   12   13 1   
    39   12   21 1   
    40   12   46 1   
    41   13   47 1   
    42   13   48 1   
    43   13   49 1   
    44   14   19 1   
    45   14   50 1   
    46   14   51 1   
    47   15   16 1   
    48   15   19 1   
    49   15   52 1   
    50   15   53 1   
    51   16   17 1   
    52   16   18 1   
    53   16   54 1   
    54   17   55 1   
    55   17   56 1   
    56   17   57 1   
    57   18   58 1   
    58   21   59 1   
    59   23   60 1   
    60   25   61 1   
@<TRIPOS>SUBSTRUCTURE
     1 4TD         1 TEMP              0 ****  ****    0 ROOT
