@<TRIPOS>MOLECULE
molecule
   61    60     1     0     0
SMALL
bcc


@<TRIPOS>ATOM
      1 C1           0.0000     0.0000     0.0000 c3         1 4TD      -0.041000
      2 C2           1.5300     0.0000     0.0000 c3         1 4TD       0.146650
      3 C4           3.4310     0.0000    -1.4580 c3         1 4TD       0.144650
      4 C5           3.8260     0.0000    -2.9370 c3         1 4TD       0.147350
      5 C6           3.1580     1.1820    -3.6440 c3         1 4TD      -0.113350
      6 C8          -0.5110     0.0000     1.4420 c3         1 4TD       0.146650
      7 C10         -2.5210    -0.0010     2.7470 c3         1 4TD       0.144650
      8 C11         -4.0460    -0.0010     2.6260 c3         1 4TD       0.147350
      9 C12         -4.4890    -1.1820     1.7610 c3         1 4TD      -0.113350
     10 C14         -0.5100     1.2490    -0.7210 c3         1 4TD       0.146650
     11 C16         -0.4560     3.6440    -0.6440 c3         1 4TD       0.144650
     12 C17          0.1090     4.8190     0.1550 c3         1 4TD       0.147350
     13 C18         -0.4420     6.1310    -0.4070 c3         1 4TD      -0.113350
     14 C20         -0.5100    -1.2500    -0.7220 c3         1 4TD       0.146650
     15 C22         -0.4550    -3.6450    -0.6440 c3         1 4TD       0.144650
     16 C23          0.1100    -4.8200     0.1560 c3         1 4TD       0.147350
     17 C24          1.6300    -4.6830     0.2600 c3         1 4TD      -0.113350
     18 O25         -0.4590    -4.8220     1.4670 oh         1 4TD      -0.597050
     19 O21         -0.0340    -2.4160    -0.0480 os         1 4TD      -0.421350
     20 O15         -0.0340     2.4160    -0.0470 os         1 4TD      -0.421350
     21 O19          1.5350     4.8210     0.0570 oh         1 4TD      -0.597050
     22 O9          -1.9400    -0.0000     1.4410 os         1 4TD      -0.421350
     23 O13         -4.4770     1.2210     2.0200 oh         1 4TD      -0.597050
     24 O3           2.0060    -0.0000    -1.3460 os         1 4TD      -0.421350
     25 O7           3.3990    -1.2210    -3.5440 oh         1 4TD      -0.597050
     26 H1           1.8910    -0.8850     0.5110 h1         1 4TD       0.040200
     27 H2           1.8910     0.8840     0.5110 h1         1 4TD       0.040200
     28 H3           3.8310     0.8850    -0.9780 h1         1 4TD       0.031200
     29 H4           3.8310    -0.8840    -0.9780 h1         1 4TD       0.031200
     30 H5           4.9020     0.0900    -3.0230 h1         1 4TD       0.033200
     31 H6           3.8070     1.5470    -4.4300 hc         1 4TD       0.044033
     32 H7           2.2160     0.8610    -4.0730 hc         1 4TD       0.044033
     33 H8           2.9760     1.9750    -2.9280 hc         1 4TD       0.044033
     34 H9          -0.1500    -0.8840     1.9530 h1         1 4TD       0.040200
     35 H10         -0.1500     0.8850     1.9520 h1         1 4TD       0.040200
     36 H11         -2.2020     0.8840     3.2850 h1         1 4TD       0.031200
     37 H12         -2.2020    -0.8850     3.2840 h1         1 4TD       0.031200
     38 H13         -4.4870    -0.0900     3.6110 h1         1 4TD       0.033200
     39 H14         -4.3180    -0.9490     0.7170 hc         1 4TD       0.044033
     40 H15         -3.9200    -2.0620     2.0330 hc         1 4TD       0.044033
     41 H16         -5.5440    -1.3710     1.9200 hc         1 4TD       0.044033
     42 H17         -0.1480     1.2490    -1.7420 h1         1 4TD       0.040200
     43 H18         -1.5930     1.2480    -0.7220 h1         1 4TD       0.040200
     44 H19         -0.0930     3.6930    -1.6630 h1         1 4TD       0.031200
     45 H20         -1.5380     3.6930    -0.6430 h1         1 4TD       0.031200
     46 H21         -0.1810     4.7220     1.1950 h1         1 4TD       0.033200
     47 H22         -0.0940     6.2620    -1.4240 hc         1 4TD       0.044033
     48 H23         -0.0990     6.9580     0.2020 hc         1 4TD       0.044033
     49 H24         -1.5250     6.1010    -0.3980 hc         1 4TD       0.044033
     50 H25         -1.5930    -1.2500    -0.7220 h1         1 4TD       0.040200
     51 H26         -0.1490    -1.2500    -1.7430 h1         1 4TD       0.040200
     52 H27         -1.5370    -3.6940    -0.6430 h1         1 4TD       0.031200
     53 H28         -0.0920    -3.6950    -1.6630 h1         1 4TD       0.031200
     54 H29         -0.1360    -5.7490    -0.3450 h1         1 4TD       0.033200
     55 H30          1.8760    -3.9410     1.0100 hc         1 4TD       0.044033
     56 H31          2.0310    -4.3730    -0.6980 hc         1 4TD       0.044033
     57 H32          2.0610    -5.6360     0.5400 hc         1 4TD       0.044033
     58 H33         -0.6620    -5.7070     1.7200 ho         1 4TD       0.395000
     59 H34          1.8910     5.4470     0.6650 ho         1 4TD       0.395000
     60 H35         -5.2310     1.5510     2.4810 ho         1 4TD       0.395000
     61 H36          4.0960    -1.5680    -4.0770 ho         1 4TD       0.395000
@<TRIPOS>BOND
     1    23     8 1
     2     8     9 1
     3     8     7 1
     4     7    22 1
     5    22     6 1
     6     6     1 1
     7    17    16 1
     8    18    16 1
     9    10     1 1
    10    10    20 1
    11    11    20 1
    12    11    12 1
    13    16    15 1
    14    15    19 1
    15     1    14 1
    16     1     2 1
    17    21    12 1
    18    19    14 1
    19    12    13 1
    20     2    24 1
    21     5     4 1
    22    24     3 1
    23     3     4 1
    24     4    25 1
    25     2    26 1
    26     2    27 1
    27     3    28 1
    28     3    29 1
    29     4    30 1
    30     5    31 1
    31     5    32 1
    32     5    33 1
    33     6    34 1
    34     6    35 1
    35     7    36 1
    36     7    37 1
    37     8    38 1
    38     9    39 1
    39     9    40 1
    40     9    41 1
    41    10    42 1
    42    10    43 1
    43    11    44 1
    44    11    45 1
    45    12    46 1
    46    13    47 1
    47    13    48 1
    48    13    49 1
    49    14    50 1
    50    14    51 1
    51    15    52 1
    52    15    53 1
    53    16    54 1
    54    17    55 1
    55    17    56 1
    56    17    57 1
    57    18    58 1
    58    21    59 1
    59    23    60 1
    60    25    61 1
@<TRIPOS>SUBSTRUCTURE
     1 4TD         1 TEMP              0 ****  ****    0 ROOT
