@<TRIPOS>MOLECULE
molecule
   24    25     1     0     0
SMALL
bcc


@<TRIPOS>ATOM
      1 C01          0.0000     0.0000     0.0000 c3         1 4TE      -0.168700
      2 C02          1.5580     0.0000     0.0000 c3         1 4TE       0.140100
      3 C03          1.9710     0.0000     1.5030 c3         1 4TE      -0.114700
      4 C04          1.6280    -1.4420     1.9530 c3         1 4TE      -0.118400
      5 C05          1.0640    -2.0850     0.6500 c3         1 4TE       0.135100
      6 C06         -0.3430    -1.4430     0.4500 c3         1 4TE      -0.160700
      7 C07         -1.1130    -2.1690    -0.6220 c          1 4TE       0.915600
      8 O08         -2.4550    -2.1420    -0.6190 o          1 4TE      -0.850800
      9 O09         -0.5230    -2.7740    -1.4860 o          1 4TE      -0.850800
     10 O10          1.8450    -1.3880    -0.3750 os         1 4TE      -0.383600
     11 C11          1.1490     1.0230     2.2900 c3         1 4TE      -0.076100
     12 C12         -0.5380     0.2700    -1.3810 c          1 4TE       0.915600
     13 O13         -1.7730     0.7750    -1.5330 o          1 4TE      -0.850800
     14 O14          0.1410     0.0320    -2.3510 o          1 4TE      -0.850800
     15 H1          -0.3830     0.7230     0.7100 hc         1 4TE       0.024700
     16 H2           2.0290     0.7550    -0.6180 h1         1 4TE       0.081700
     17 H3           3.0310     0.1930     1.6090 hc         1 4TE       0.013700
     18 H4           2.5190    -1.9630     2.2820 hc         1 4TE       0.015200
     19 H5           0.8760    -1.4330     2.7330 hc         1 4TE       0.015200
     20 H6           1.0990    -3.1670     0.6050 h1         1 4TE       0.079700
     21 H7          -0.8950    -1.4330     1.3820 hc         1 4TE       0.018700
     22 H9           0.2000     0.5830     2.5730 hc         1 4TE       0.022033
     23 H10          1.6920     1.3130     3.1810 hc         1 4TE       0.022033
     24 H11          0.9730     1.8960     1.6740 hc         1 4TE       0.022033
@<TRIPOS>BOND
     1    14    12 1   
     2     9     7 1   
     3    12    13 1   
     4    12     1 1   
     5    10     2 1   
     6    10     5 1   
     7     7     8 1   
     8     7     6 1   
     9     2     1 1   
    10     2     3 1   
    11     5     6 1   
    12     5     4 1   
    13     1     6 1   
    14     3     4 1   
    15     3    11 1   
    16     1    15 1   
    17     2    16 1   
    18     3    17 1   
    19     4    18 1   
    20     4    19 1   
    21     5    20 1   
    22     6    21 1   
    23    11    22 1   
    24    11    23 1   
    25    11    24 1   
@<TRIPOS>SUBSTRUCTURE
     1 4TE         1 TEMP              0 ****  ****    0 ROOT
