@<TRIPOS>MOLECULE
molecule
   34    35     1     0     0
SMALL
bcc


@<TRIPOS>ATOM
      1 O18          0.0000     0.0000     0.0000 o          1 4TF      -0.848800
      2 C16          1.2080     0.0000     0.0000 c          1 4TF       0.915600
      3 O17          1.8800     0.0000     1.1620 o          1 4TF      -0.848800
      4 C01          1.9620    -0.0050    -1.3050 c3         1 4TF      -0.163700
      5 C06          2.2140    -1.4560    -1.7880 c3         1 4TF      -0.172700
      6 C07          1.6360    -2.4510    -0.8150 c          1 4TF       0.915600
      7 O09          2.3910    -2.9250     0.1890 o          1 4TF      -0.847800
      8 O08          0.4920    -2.8210    -0.9370 o          1 4TF      -0.847800
      9 C02          1.0880     0.5910    -2.4490 c3         1 4TF       0.132100
     10 O10          0.3390    -0.5930    -2.8830 os         1 4TF      -0.378600
     11 C05          1.4530    -1.5070    -3.1470 c3         1 4TF       0.142100
     12 C03          2.0600     0.7910    -3.6510 c3         1 4TF      -0.112400
     13 C04          2.3140    -0.6610    -4.1330 c3         1 4TF      -0.106700
     14 C11          3.7950    -1.0230    -4.0070 c3         1 4TF       0.133400
     15 O12          4.5570    -0.2330    -4.9220 os         1 4TF      -0.447600
     16 C13          5.9620    -0.4950    -4.8850 c3         1 4TF       0.142400
     17 C14          6.6740     0.4020    -5.8980 c3         1 4TF      -0.085400
     18 C15          8.1780     0.1220    -5.8590 c3         1 4TF      -0.092100
     19 H2           2.8950     0.5370    -1.2140 hc         1 4TF       0.020700
     20 H3           3.2730    -1.6320    -1.9350 hc         1 4TF       0.020700
     21 H5           0.4840     1.4500    -2.1830 h1         1 4TF       0.082700
     22 H6           1.1720    -2.4940    -3.4930 h1         1 4TF       0.084700
     23 H7           2.9840     1.2530    -3.3240 hc         1 4TF       0.023200
     24 H8           1.5910     1.3770    -4.4310 hc         1 4TF       0.023200
     25 H9           1.9700    -0.7920    -5.1520 hc         1 4TF       0.027700
     26 H10          4.1300    -0.8280    -2.9950 h1         1 4TF       0.041200
     27 H11          3.9310    -2.0730    -4.2360 h1         1 4TF       0.041200
     28 H12          6.1420    -1.5340    -5.1330 h1         1 4TF       0.018700
     29 H13          6.3420    -0.2900    -3.8910 h1         1 4TF       0.018700
     30 H14          6.4940     1.4410    -5.6500 hc         1 4TF       0.044200
     31 H15          6.2940     0.1980    -6.8910 hc         1 4TF       0.044200
     32 H16          8.6820     0.7550    -6.5810 hc         1 4TF       0.025700
     33 H17          8.5590     0.3320    -4.8670 hc         1 4TF       0.025700
     34 H18          8.3580    -0.9180    -6.1030 hc         1 4TF       0.025700
@<TRIPOS>BOND
     1    12     9 1   
     2    12    13 1   
     3     1     2 1   
     4     9     4 1   
     5     9    10 1   
     6     2     4 1   
     7     2     3 1   
     8     4     5 1   
     9    10    11 1   
    10    13    14 1   
    11    13    11 1   
    12    14    15 1   
    13    11     5 1   
    14     5     6 1   
    15    15    16 1   
    16     6     8 1   
    17     6     7 1   
    18    17    16 1   
    19    17    18 1   
    20     4    19 1   
    21     5    20 1   
    22     9    21 1   
    23    11    22 1   
    24    12    23 1   
    25    12    24 1   
    26    13    25 1   
    27    14    26 1   
    28    14    27 1   
    29    16    28 1   
    30    16    29 1   
    31    17    30 1   
    32    17    31 1   
    33    18    32 1   
    34    18    33 1   
    35    18    34 1   
@<TRIPOS>SUBSTRUCTURE
     1 4TF         1 TEMP              0 ****  ****    0 ROOT
