@<TRIPOS>MOLECULE
molecule
   74    78     1     0     0
SMALL
bcc


@<TRIPOS>ATOM
      1 C2           0.0000     0.0000     0.0000 ca         1 4TH       0.030400
      2 C3           1.3840     0.0000     0.0000 ca         1 4TH      -0.121500
      3 C11          0.2590     0.8760     5.8000 c3         1 4TH      -0.099100
      4 C12          1.2890     1.8110     5.2280 ca         1 4TH      -0.077300
      5 C13          2.1660     1.3990     4.2470 ca         1 4TH      -0.090300
      6 C14          3.1040     2.2870     3.7430 ca         1 4TH      -0.180000
      7 C15          3.1660     3.5860     4.2170 ca         1 4TH       0.126100
      8 C16          2.2810     4.0010     5.2080 ca         1 4TH       0.124100
      9 C17          1.3460     3.1110     5.7070 ca         1 4TH      -0.187000
     10 C22          4.9200     3.9750     2.6580 c3         1 4TH       0.136100
     11 C23          5.4080     5.1600     1.8220 c3         1 4TH      -0.077400
     12 C25          1.7900    -2.2930     4.4900 ca         1 4TH      -0.012400
     13 C26          2.9360    -2.8120     5.0790 ca         1 4TH      -0.067500
     14 C27          3.2250    -4.1560     4.9620 ca         1 4TH      -0.205000
     15 C28          2.3690    -4.9910     4.2530 ca         1 4TH       0.212600
     16 C29          1.2240    -4.4720     3.6650 ca         1 4TH      -0.205000
     17 C30          0.9350    -3.1270     3.7830 ca         1 4TH      -0.067500
     18 Cl1         -0.8670    -0.0000    -1.5040 cl         1 4TH      -0.108400
     19 C4           2.0750     0.0000     1.1980 ca         1 4TH      -0.106500
     20 C5           1.3820     0.0000     2.3940 ca         1 4TH      -0.097300
     21 C6           0.0000    -0.0000     2.3950 ca         1 4TH      -0.106500
     22 C7          -0.6910    -0.0050     1.1970 ca         1 4TH      -0.121500
     23 C8           2.1350    -0.0010     3.7000 c3         1 4TH       0.220300
     24 N9           1.4940    -0.9290     4.6150 n          1 4TH      -0.381000
     25 C10          0.6380    -0.5530     5.5670 c          1 4TH       0.700500
     26 O21          4.0890     4.4510     3.7200 os         1 4TH      -0.307900
     27 O24          0.1450    -1.4070     6.2750 o          1 4TH      -0.633500
     28 C31          6.1230     3.2350     3.2450 c3         1 4TH      -0.123100
     29 N32          2.6620    -6.3530     4.1340 nh         1 4TH      -0.731000
     30 C33          3.8710    -6.9000     4.7550 c3         1 4TH       0.232100
     31 C34          1.7600    -7.2330     3.3880 c3         1 4TH       0.282100
     32 N35          2.9410    -7.3480    -0.6820 nb         1 4TH      -0.690000
     33 C36          1.6660    -6.3670     1.0280 ca         1 4TH      -0.242800
     34 C37          2.0740    -6.4340    -0.2910 ca         1 4TH       0.419200
     35 C38          3.4510    -8.2270     0.1580 ca         1 4TH       0.419200
     36 C39          3.0890    -8.2200     1.4920 ca         1 4TH      -0.242800
     37 C40          2.1790    -7.2740     1.9410 ca         1 4TH      -0.079300
     38 H1           1.9260    -0.0000    -0.9380 ha         1 4TH       0.145500
     39 H2           3.6240     5.0720     0.6250 hc         1 4TH       0.039033
     40 H3           4.5690     6.5530     0.4150 hc         1 4TH       0.039033
     41 H4           3.5990     6.3210     1.8770 hc         1 4TH       0.039033
     42 H5          -0.6870     1.0650     5.3080 hc         1 4TH       0.084700
     43 H6           0.1980     1.0450     6.8690 hc         1 4TH       0.084700
     44 H7           3.7930     1.9630     2.9720 ha         1 4TH       0.145000
     45 H8           0.6560     3.4320     6.4780 ha         1 4TH       0.144000
     46 H9           1.5340     4.9890     7.5590 h1         1 4TH       0.042033
     47 H10          0.3880     5.5000     6.3110 h1         1 4TH       0.042033
     48 H11          1.5380     6.6630     6.9850 h1         1 4TH       0.042033
     49 H12          4.3520     3.3000     2.0300 h1         1 4TH       0.045700
     50 H13          5.8990     5.8790     2.4660 hc         1 4TH       0.054700
     51 H14          6.1070     4.8100     1.0720 hc         1 4TH       0.054700
     52 H15          3.6030    -2.1600     5.6310 ha         1 4TH       0.137000
     53 H16          4.1200    -4.5610     5.4210 ha         1 4TH       0.134500
     54 H17          0.5560    -5.1230     3.1130 ha         1 4TH       0.134500
     55 H18          0.0410    -2.7230     3.3240 ha         1 4TH       0.137000
     56 H19          3.1580     0.0000     1.1990 ha         1 4TH       0.138000
     57 H20         -0.5410    -0.0020     3.3330 ha         1 4TH       0.138000
     58 H21         -1.7740    -0.0050     1.1970 ha         1 4TH       0.145500
     59 H22          3.1520    -0.3300     3.5240 h1         1 4TH       0.074700
     60 H23          6.1230     2.2100     2.8940 hc         1 4TH       0.046700
     61 H24          6.0610     3.2460     4.3270 hc         1 4TH       0.046700
     62 H25          7.0370     3.7250     2.9310 hc         1 4TH       0.046700
     63 H26          3.9310    -7.9630     4.5550 h1         1 4TH       0.036700
     64 H27          4.7440    -6.4060     4.3450 h1         1 4TH       0.036700
     65 H28          3.8330    -6.7360     5.8250 h1         1 4TH       0.036700
     66 H29          1.8040    -8.2320     3.8050 h1         1 4TH       0.061200
     67 H30          0.7470    -6.8570     3.4600 h1         1 4TH       0.061200
     68 H31          0.9540    -5.6150     1.3440 ha         1 4TH       0.139000
     69 H32          1.6780    -5.7290    -1.0110 h4         1 4TH       0.024100
     70 H33          4.1610    -8.9620    -0.2010 h4         1 4TH       0.024100
     71 H34          3.5100    -8.9450     2.1780 ha         1 4TH       0.139000
     72 O18          2.3340     5.2750     5.6800 os         1 4TH      -0.310900
     73 C41          4.2130     5.8250     1.1340 c3         1 4TH      -0.094100
     74 C19          1.3930     5.6290     6.6960 c3         1 4TH       0.125700
@<TRIPOS>BOND
     1    27    25 2
     2     3    25 1
     3     3     4 1
     4    25    24 1
     5    35    32 ar
     6    35    36 ar
     7     9     4 ar
     8     9     8 ar
     9    32    34 ar
    10     4     5 ar
    11    74    72 1
    12    36    37 ar
    13    17    16 ar
    14    17    12 ar
    15    24    12 1
    16    24    23 1
    17    16    15 ar
    18    21    22 ar
    19    21    20 ar
    20    12    13 ar
    21    22     1 ar
    22     8    72 1
    23     8     7 ar
    24    30    29 1
    25    15    29 1
    26    15    14 ar
    27     5    23 1
    28     5     6 ar
    29    13    14 ar
    30    34    33 ar
    31    23    20 1
    32    37    33 ar
    33    37    31 1
    34    20    19 ar
    35    29    31 1
    36     1    18 1
    37     1     2 ar
    38     7     6 ar
    39     7    26 1
    40    19     2 ar
    41    26    10 1
    42    11    10 1
    43    11    73 1
    44    10    28 1
    45     2    38 1
    46    73    39 1
    47    73    40 1
    48    73    41 1
    49     3    42 1
    50     3    43 1
    51     6    44 1
    52     9    45 1
    53    74    46 1
    54    74    47 1
    55    74    48 1
    56    10    49 1
    57    11    50 1
    58    11    51 1
    59    13    52 1
    60    14    53 1
    61    16    54 1
    62    17    55 1
    63    19    56 1
    64    21    57 1
    65    22    58 1
    66    23    59 1
    67    28    60 1
    68    28    61 1
    69    28    62 1
    70    30    63 1
    71    30    64 1
    72    30    65 1
    73    31    66 1
    74    31    67 1
    75    33    68 1
    76    34    69 1
    77    35    70 1
    78    36    71 1
@<TRIPOS>SUBSTRUCTURE
     1 4TH         1 TEMP              0 ****  ****    0 ROOT
