@<TRIPOS>MOLECULE
molecule
   36    36     1     0     0
SMALL
bcc


@<TRIPOS>ATOM
      1 CA           1.5080     0.0000     0.0000 c3         1 4TK       0.104000
      2 N            1.9970     0.0000     1.3810 ns         1 4TK      -0.564900
      3 CAO          2.1250    -1.1640     2.0500 c          1 4TK       0.680100
      4 OAE          1.8370    -2.2090     1.5080 o          1 4TK      -0.603100
      5 CAS          2.6280    -1.1630     3.4700 c3         1 4TK      -0.138000
      6 CAA          2.6790    -2.6000     3.9930 c3         1 4TK      -0.078767
      7 CAB          4.0300    -0.5530     3.5160 c3         1 4TK      -0.078767
      8 CAC          1.6840    -0.3360     4.3460 c3         1 4TK      -0.078767
      9 C            0.0000     0.0000     0.0000 c          1 4TK       0.661100
     10 O           -0.6060    -0.0000     1.0510 o          1 4TK      -0.559100
     11 NAL         -0.6730    -0.0000    -1.1660 ns         1 4TK      -0.467400
     12 OAF         -2.0900     0.0000    -1.1670 oh         1 4TK      -0.359100
     13 BrG          3.5590     5.0340    -2.9050 br         1 4TK      -0.084100
     14 CAQ          2.0090     1.2310    -0.7100 ca         1 4TK      -0.097300
     15 CAJ          2.4350     1.1460    -2.0230 ca         1 4TK      -0.119000
     16 CAH          2.8950     2.2750    -2.6740 ca         1 4TK      -0.096500
     17 CAP          2.9300     3.4900    -2.0130 ca         1 4TK      -0.012900
     18 CAI          2.5030     3.5740    -0.7000 ca         1 4TK      -0.096500
     19 CAK          2.0380     2.4450    -0.0520 ca         1 4TK      -0.119000
     20 H1           1.8690    -0.8840    -0.5110 h1         1 4TK       0.099700
     21 H2           2.2740     0.8590     1.8130 hn         1 4TK       0.325500
     22 H3           3.0490    -2.6020     5.0110 hc         1 4TK       0.042811
     23 H4           1.6840    -3.0290     3.9700 hc         1 4TK       0.042811
     24 H5           3.3400    -3.1890     3.3680 hc         1 4TK       0.042811
     25 H6           4.5020    -0.8020     4.4580 hc         1 4TK       0.042811
     26 H7           3.9590     0.5240     3.4200 hc         1 4TK       0.042811
     27 H8           4.6230    -0.9490     2.7000 hc         1 4TK       0.042811
     28 H9           1.9130    -0.5120     5.3900 hc         1 4TK       0.042811
     29 H10          1.8110     0.7160     4.1210 hc         1 4TK       0.042811
     30 H11          0.6590    -0.6270     4.1470 hc         1 4TK       0.042811
     31 H12         -0.1730    -0.0460    -2.0320 hn         1 4TK       0.319500
     32 H13         -2.4040    -0.2420    -2.0220 ho         1 4TK       0.398000
     33 H14          2.4090     0.1950    -2.5400 ha         1 4TK       0.141000
     34 H15          3.2290     2.2080    -3.7030 ha         1 4TK       0.149500
     35 H16          2.5250     4.5260    -0.1830 ha         1 4TK       0.149500
     36 H17          1.7040     2.5120     0.9770 ha         1 4TK       0.141000
@<TRIPOS>BOND
     1     8     5 1   
     2    12    11 1   
     3    11     9 1   
     4     5     6 1   
     5     5     3 1   
     6     5     7 1   
     7    10     9 2   
     8     9     1 1   
     9     3     4 2   
    10     3     2 1   
    11     2     1 1   
    12     1    14 1   
    13    14    15 ar  
    14    14    19 ar  
    15    15    16 ar  
    16    19    18 ar  
    17    16    17 ar  
    18    18    17 ar  
    19    17    13 1   
    20     1    20 1   
    21     2    21 1   
    22     6    22 1   
    23     6    23 1   
    24     6    24 1   
    25     7    25 1   
    26     7    26 1   
    27     7    27 1   
    28     8    28 1   
    29     8    29 1   
    30     8    30 1   
    31    11    31 1   
    32    12    32 1   
    33    15    33 1   
    34    16    34 1   
    35    18    35 1   
    36    19    36 1   
@<TRIPOS>SUBSTRUCTURE
     1 4TK         1 TEMP              0 ****  ****    0 ROOT
