@<TRIPOS>MOLECULE
4TL
   46    47     1     0     0
SMALL
bcc


@<TRIPOS>ATOM
      1 CAA          0.0000     0.0000     0.0000 c3         1 4TL       0.012233
      2 CBA          1.5300     0.0000     0.0000 c3         1 4TL      -0.141000
      3 CAB          2.0400     0.0000     1.4420 c3         1 4TL       0.012233
      4 CAC          2.0390    -1.2500    -0.7210 c3         1 4TL       0.012233
      5 CAS          2.0320     1.2290    -0.7110 c          1 4TL       0.596100
      6 OAE          1.2440     2.0280    -1.1720 o          1 4TL      -0.645100
      7 N            3.3580     1.4420    -0.8350 ns         1 4TL      -0.175900
      8 CA           3.8460     2.6380    -1.5260 c3         1 4TL       0.014000
      9 C            3.8980     3.7920    -0.5580 c          1 4TL       0.561100
     10 O            3.5590     3.6320     0.5960 o          1 4TL      -0.608100
     11 NAP          4.3190     5.0020    -0.9740 ns         1 4TL      -0.049400
     12 OAF          4.3670     6.0870    -0.0650 oh         1 4TL      -0.436100
     13 CAY          5.2280     2.3760    -2.0680 ca         1 4TL      -0.111300
     14 CAM          5.5790     2.8530    -3.3180 ca         1 4TL      -0.089000
     15 CAK          6.8420     2.6150    -3.8200 ca         1 4TL      -0.084000
     16 CAL          6.1410     1.6640    -1.3120 ca         1 4TL      -0.089000
     17 CAJ          7.4070     1.4210    -1.8040 ca         1 4TL      -0.084000
     18 CAV          7.7650     1.8940    -3.0650 cp         1 4TL      -0.037000
     19 CAW          9.1240     1.6340    -3.5990 cp         1 4TL       0.011000
     20 CAN         10.0470     0.9130    -2.8440 ca         1 4TL      -0.127500
     21 CAT         11.3120     0.6740    -3.3440 ca         1 4TL       0.112900
     22 FAG         12.2060    -0.0260    -2.6120 f          1 4TL      -0.109900
     23 CAX         11.6650     1.1510    -4.5970 ca         1 4TL       0.052900
     24 FAI         12.9030     0.9150    -5.0840 f          1 4TL      -0.102900
     25 CAU         10.7500     1.8690    -5.3530 ca         1 4TL       0.112900
     26 FAH         11.0990     2.3320    -6.5740 f          1 4TL      -0.109900
     27 CAO          9.4810     2.1070    -4.8600 ca         1 4TL      -0.127500
     28 H1          -0.3610     0.8760     0.5250 hc         1 4TL       0.010256
     29 H2          -0.3610    -0.8930     0.4960 hc         1 4TL       0.010256
     30 H3          -0.3610     0.0170    -1.0210 hc         1 4TL       0.010256
     31 H4           1.4970    -0.7400     2.0180 hc         1 4TL       0.010256
     32 H5           3.0970    -0.2400     1.4510 hc         1 4TL       0.010256
     33 H6           1.8890     0.9800     1.8790 hc         1 4TL       0.010256
     34 H7           1.4660    -2.1110    -0.4000 hc         1 4TL       0.010256
     35 H8           1.9280    -1.1200    -1.7910 hc         1 4TL       0.010256
     36 H9           3.0850    -1.4030    -0.4830 hc         1 4TL       0.010256
     37 H10          4.0080     0.7690    -0.4800 hn         1 4TL       0.187500
     38 H11          3.1780     2.8810    -2.3430 h1         1 4TL       0.069700
     39 H12          4.5630     5.1440    -1.9350 hn         1 4TL       0.156500
     40 H13          4.4380     6.8960    -0.5440 ho         1 4TL       0.392000
     41 H14          4.8610     3.4130    -3.9050 ha         1 4TL       0.114500
     42 H15          7.1160     2.9870    -4.8010 ha         1 4TL       0.116000
     43 H16          5.8620     1.2960    -0.3310 ha         1 4TL       0.114500
     44 H17          8.1210     0.8610    -1.2120 ha         1 4TL       0.116000
     45 H18          9.7690     0.5330    -1.8680 ha         1 4TL       0.135500
     46 H19          8.7660     2.6680    -5.4510 ha         1 4TL       0.135500
@<TRIPOS>BOND
     1     1     2 1   
     2     1    28 1   
     3     1    29 1   
     4     1    30 1   
     5     2     3 1   
     6     2     4 1   
     7     2     5 1   
     8     3    31 1   
     9     3    32 1   
    10     3    33 1   
    11     4    34 1   
    12     4    35 1   
    13     4    36 1   
    14     5     6 2   
    15     5     7 1   
    16     7     8 1   
    17     7    37 1   
    18     8     9 1   
    19     8    13 1   
    20     8    38 1   
    21     9    10 2   
    22     9    11 1   
    23    11    12 1   
    24    11    39 1   
    25    12    40 1   
    26    13    14 ar  
    27    13    16 ar  
    28    14    15 ar  
    29    14    41 1   
    30    15    18 ar  
    31    15    42 1   
    32    16    17 ar  
    33    16    43 1   
    34    17    18 ar  
    35    17    44 1   
    36    18    19 1   
    37    19    20 ar  
    38    19    27 ar  
    39    20    21 ar  
    40    20    45 1   
    41    21    22 1   
    42    21    23 ar  
    43    23    24 1   
    44    23    25 ar  
    45    25    26 1   
    46    25    27 ar  
    47    27    46 1   
@<TRIPOS>SUBSTRUCTURE
     1 4TL         1 TEMP              0 ****  ****    0 ROOT
