@<TRIPOS>MOLECULE
molecule
   43    44     1     0     0
SMALL
bcc


@<TRIPOS>ATOM
      1 CAA          0.0000     0.0000     0.0000 c3         1 4TM      -0.078767
      2 CAW          1.5300     0.0000     0.0000 c3         1 4TM      -0.138000
      3 CAB          2.0400     0.0000     1.4430 c3         1 4TM      -0.078767
      4 CAC          2.0400    -1.2490    -0.7210 c3         1 4TM      -0.078767
      5 CAR          2.0320     1.2310    -0.7100 c          1 4TM       0.678100
      6 OAE          2.7300     1.1200    -1.6970 o          1 4TM      -0.606100
      7 N            1.7070     2.4550    -0.2500 ns         1 4TM      -0.561900
      8 CA           2.1950     3.6510    -0.9400 c3         1 4TM       0.106000
      9 C            1.2640     3.9900    -2.0780 c          1 4TM       0.661100
     10 O            0.2900     3.2990    -2.2890 o          1 4TM      -0.562100
     11 NAN          1.5160     5.0590    -2.8580 ns         1 4TM      -0.467400
     12 OAF          0.6420     5.3770    -3.9260 oh         1 4TM      -0.361100
     13 CAU          2.2460     4.8050     0.0270 ca         1 4TM      -0.112300
     14 CAL          1.2330     4.9700     0.9570 ca         1 4TM      -0.116000
     15 CAJ          1.2750     6.0250     1.8460 ca         1 4TM      -0.115500
     16 CAK          3.3070     5.6910    -0.0120 ca         1 4TM      -0.116000
     17 CAI          3.3580     6.7490     0.8720 ca         1 4TM      -0.115500
     18 CAS          2.3390     6.9240     1.8070 ca         1 4TM      -0.002000
     19 CAT          2.3880     8.0600     2.7590 cc         1 4TM      -0.072000
     20 CAH          3.4250     8.9920     2.7690 cc         1 4TM      -0.147000
     21 CAG          3.3120     9.9460     3.6890 cd         1 4TM      -0.070100
     22 SAP          1.8410     9.7090     4.6220 ss         1 4TM      -0.147800
     23 CAM          1.4330     8.2800     3.6820 cd         1 4TM      -0.063100
     24 H1          -0.3610    -0.9810     0.2850 hc         1 4TM       0.042367
     25 H2          -0.3610     0.7370     0.7070 hc         1 4TM       0.042367
     26 H3          -0.3610     0.2440    -0.9920 hc         1 4TM       0.042367
     27 H4           3.0890     0.2700     1.4550 hc         1 4TM       0.042367
     28 H5           1.9160    -0.9880     1.8690 hc         1 4TM       0.042367
     29 H6           1.4760     0.7180     2.0250 hc         1 4TM       0.042367
     30 H7           1.6920    -2.1340    -0.2010 hc         1 4TM       0.042367
     31 H8           1.6650    -1.2570    -1.7380 hc         1 4TM       0.042367
     32 H9           3.1230    -1.2410    -0.7350 hc         1 4TM       0.042367
     33 H10          1.1470     2.5470     0.5740 hn         1 4TM       0.325500
     34 H11          3.1880     3.4630    -1.3300 h1         1 4TM       0.098700
     35 H12          2.3430     5.6020    -2.7090 hn         1 4TM       0.319500
     36 H13          1.0680     5.9820    -4.5110 ho         1 4TM       0.397000
     37 H14          0.4060     4.2700     0.9860 ha         1 4TM       0.134500
     38 H15          0.4810     6.1550     2.5710 ha         1 4TM       0.137500
     39 H16          4.0990     5.5550    -0.7380 ha         1 4TM       0.134500
     40 H17          4.1890     7.4440     0.8390 ha         1 4TM       0.137500
     41 H18          4.2590     8.9420     2.0800 ha         1 4TM       0.149000
     42 H19          4.0230    10.7500     3.8430 h4         1 4TM       0.173000
     43 H20          0.5510     7.6670     3.8270 h4         1 4TM       0.174000
@<TRIPOS>BOND
     1     3     2 1   
     2    12    11 1   
     3     2     4 1   
     4     2     1 1   
     5     2     5 1   
     6    11     9 1   
     7    10     9 2   
     8     5     7 1   
     9     5     6 2   
    10     9     8 1   
    11     7     8 1   
    12     8    13 1   
    13    13    16 ar  
    14    13    14 ar  
    15    16    17 ar  
    16    14    15 ar  
    17    17    18 ar  
    18    15    18 ar  
    19    18    19 1   
    20    19    20 1   
    21    19    23 2   
    22    20    21 2   
    23    23    22 1   
    24    21    22 1   
    25     1    24 1   
    26     1    25 1   
    27     1    26 1   
    28     3    27 1   
    29     3    28 1   
    30     3    29 1   
    31     4    30 1   
    32     4    31 1   
    33     4    32 1   
    34     7    33 1   
    35     8    34 1   
    36    11    35 1   
    37    12    36 1   
    38    14    37 1   
    39    15    38 1   
    40    16    39 1   
    41    17    40 1   
    42    20    41 1   
    43    21    42 1   
    44    23    43 1   
@<TRIPOS>SUBSTRUCTURE
     1 4TM         1 TEMP              0 ****  ****    0 ROOT
