@<TRIPOS>MOLECULE
4TN
   58    60     1     0     0
SMALL
bcc


@<TRIPOS>ATOM
      1 CAA         0.2500   -0.7800    0.4740 c3        1 4TN     -0.101100
      2 CAP         1.7500   -0.6020    0.4260 c3        1 4TN      0.130400
      3 OAS         2.1240   -0.0240    1.6820 os        1 4TN     -0.321900
      4 CAW         3.3660    0.5870    1.7090 ca        1 4TN      0.119100
      5 CAN         4.4240    0.1540    0.9070 ca        1 4TN     -0.203000
      6 CAZ         5.6900    0.7510    0.9940 ca        1 4TN     -0.047300
      7 CBB         6.7740    0.2450    0.0790 c3        1 4TN     -0.001700
      8 CAB         6.2560    0.1350   -1.3540 c3        1 4TN     -0.082600
      9 CAC         7.2210   -1.1380    0.5440 c3        1 4TN     -0.082600
     10 CAQ         7.9700    1.1990    0.0600 c3        1 4TN     -0.066400
     11 CAR         8.3520    1.6660    1.4420 c3        1 4TN     -0.068400
     12 CBC         7.2290    2.4490    2.1230 c3        1 4TN      0.002300
     13 CAD         7.1660    3.8650    1.5580 c3        1 4TN     -0.085100
     14 CAE         7.5670    2.5330    3.6110 c3        1 4TN     -0.085100
     15 CBA         5.8960    1.7760    1.9270 ca        1 4TN     -0.092300
     16 CAO         4.8190    2.2130    2.7110 ca        1 4TN     -0.088000
     17 CAY         3.5440    1.6470    2.6280 cp        1 4TN     -0.008000
     18 CAX         2.4650    2.1390    3.4800 cp        1 4TN     -0.083000
     19 CAM         1.6150    1.2390    4.1370 ca        1 4TN     -0.087000
     20 CAV         2.2520    3.5160    3.6910 ca        1 4TN      0.102100
     21 OAH         3.0930    4.4140    3.0580 oh        1 4TN     -0.519100
     22 CAL         1.2120    3.9630    4.5180 ca        1 4TN     -0.221000
     23 CAK         0.3820    3.0490    5.1560 ca        1 4TN     -0.070000
     24 CAU         0.5780    1.6700    4.9770 ca        1 4TN     -0.038800
     25 CAJ        -0.2710    0.6740    5.6090 ce        1 4TN     -0.179200
     26 CAI        -1.0270    0.7970    6.7050 cf        1 4TN     -0.148200
     27 CAT        -1.2080    1.9740    7.6320 c         1 4TN      0.894800
     28 OAG        -0.6720    1.9040    8.7740 o         1 4TN     -0.833800
     29 OAF        -1.9240    2.9470    7.2500 o         1 4TN     -0.833800
     30 HAI        -1.6090   -0.0810    7.0410 ha        1 4TN      0.097000
     31 HAJ        -0.2490   -0.3030    5.0900 ha        1 4TN      0.086000
     32 HAM         1.7690    0.1590    3.9780 ha        1 4TN      0.137000
     33 HAH         2.7510    5.3010    3.2360 ho        1 4TN      0.407000
     34 HAL         1.0550    5.0400    4.6650 ha        1 4TN      0.123000
     35 HAK        -0.4390    3.4020    5.8140 ha        1 4TN      0.210000
     36 HAO         4.9630    3.0510    3.4150 ha        1 4TN      0.151000
     37 HAN         4.2660   -0.6720    0.1990 ha        1 4TN      0.127000
     38 HAP1        2.2690   -1.5920    0.3180 h1        1 4TN      0.028700
     39 HAP2        2.0530    0.0690   -0.4190 h1        1 4TN      0.028700
     40 HAA1       -0.2560    0.2080    0.5860 hc        1 4TN      0.047367
     41 HAA2       -0.0380   -1.4170    1.3440 hc        1 4TN      0.047367
     42 HAA3       -0.0940   -1.2670   -0.4690 hc        1 4TN      0.047367
     43 HAB1        5.7350    1.0760   -1.6510 hc        1 4TN      0.033200
     44 HAB2        5.5420   -0.7160   -1.4560 hc        1 4TN      0.033200
     45 HAB3        7.1090   -0.0400   -2.0530 hc        1 4TN      0.033200
     46 HAC1        7.9930   -1.5450   -0.1510 hc        1 4TN      0.033200
     47 HAC2        7.6530   -1.0850    1.5710 hc        1 4TN      0.033200
     48 HAC3        6.3500   -1.8360    0.5620 hc        1 4TN      0.033200
     49 HAQ1        8.8440    0.6790   -0.4150 hc        1 4TN      0.037200
     50 HAQ2        7.7200    2.0860   -0.5800 hc        1 4TN      0.037200
     51 HAR1        8.6190    0.7800    2.0770 hc        1 4TN      0.037700
     52 HAR2        9.2630    2.3180    1.3770 hc        1 4TN      0.037700
     53 HAD1        6.9900    3.8410    0.4560 hc        1 4TN      0.035533
     54 HAD2        6.3310    4.4310    2.0370 hc        1 4TN      0.035533
     55 HAD3        8.1260    4.4000    1.7570 hc        1 4TN      0.035533
     56 HAE1        7.4280    1.5380    4.0970 hc        1 4TN      0.035533
     57 HAE2        8.6290    2.8520    3.7410 hc        1 4TN      0.035533
     58 HAE3        6.9120    3.2750    4.1270 hc        1 4TN      0.035533
@<TRIPOS>BOND
     1    1    2 1   
     2    1   40 1   
     3    1   41 1   
     4    1   42 1   
     5    2    3 1   
     6    2   38 1   
     7    2   39 1   
     8    3    4 1   
     9    4    5 ar  
    10    4   17 ar  
    11    5    6 ar  
    12    5   37 1   
    13    6    7 1   
    14    6   15 ar  
    15    7    8 1   
    16    7    9 1   
    17    7   10 1   
    18    8   43 1   
    19    8   44 1   
    20    8   45 1   
    21    9   46 1   
    22    9   47 1   
    23    9   48 1   
    24   10   11 1   
    25   10   49 1   
    26   10   50 1   
    27   11   12 1   
    28   11   51 1   
    29   11   52 1   
    30   12   13 1   
    31   12   14 1   
    32   12   15 1   
    33   13   53 1   
    34   13   54 1   
    35   13   55 1   
    36   14   56 1   
    37   14   57 1   
    38   14   58 1   
    39   15   16 ar  
    40   16   17 ar  
    41   16   36 1   
    42   17   18 1   
    43   18   19 ar  
    44   18   20 ar  
    45   19   24 ar  
    46   19   32 1   
    47   20   21 1   
    48   20   22 ar  
    49   21   33 1   
    50   22   23 ar  
    51   22   34 1   
    52   23   24 ar  
    53   23   35 1   
    54   24   25 1   
    55   25   26 2   
    56   25   31 1   
    57   26   27 1   
    58   26   30 1   
    59   27   28 1   
    60   27   29 1   
@<TRIPOS>SUBSTRUCTURE
     1 4TN         1 TEMP              0 ****  ****    0 ROOT
