@<TRIPOS>MOLECULE
molecule
   58    60     1     0     0
SMALL
bcc


@<TRIPOS>ATOM
      1 CAA          0.0000     0.0000     0.0000 c3         1 4TN      -0.098100
      2 CAP          1.5140     0.0000     0.0000 c3         1 4TN       0.142400
      3 OAS          1.9770     0.0000     1.3480 os         1 4TN      -0.336900
      4 CAW          3.1800     0.5960     1.5890 ca         1 4TN       0.138100
      5 CAN          4.3150     0.1040     0.9470 ca         1 4TN      -0.179000
      6 CAZ          5.5900     0.6790     1.1460 ca         1 4TN      -0.051300
      7 CBB          6.7970     0.0920     0.4030 c3         1 4TN      -0.010700
      8 CAB          6.4990    -0.1260    -1.1000 c3         1 4TN      -0.080600
      9 CAC          7.1480    -1.2750     1.0310 c3         1 4TN      -0.080600
     10 CAQ          8.0210     1.0320     0.4720 c3         1 4TN      -0.069400
     11 CAR          8.2450     1.5730     1.8750 c3         1 4TN      -0.069400
     12 CBC          7.0550     2.4310     2.3600 c3         1 4TN      -0.009700
     13 CAD          7.0840     3.8100     1.6640 c3         1 4TN      -0.081100
     14 CAE          7.2640     2.6470     3.8780 c3         1 4TN      -0.081100
     15 CBA          5.7110     1.7560     2.0580 ca         1 4TN      -0.082300
     16 CAO          4.5410     2.2470     2.6800 ca         1 4TN      -0.094000
     17 CAY          3.2910     1.6740     2.4500 cp         1 4TN      -0.021000
     18 CAX          2.1280     2.2180     3.1220 cp         1 4TN      -0.061000
     19 CAM          1.7610     1.7080     4.3670 ca         1 4TN      -0.086000
     20 CAV          1.3770     3.2380     2.5380 ca         1 4TN       0.103100
     21 OAH          1.7120     3.7560     1.3210 oh         1 4TN      -0.516100
     22 CAL          0.2600     3.7480     3.1990 ca         1 4TN      -0.213000
     23 CAK         -0.1060     3.2380     4.4450 ca         1 4TN      -0.106000
     24 CAU          0.6450     2.2180     5.0290 ca         1 4TN      -0.027800
     25 CAJ          0.2620     1.6870     6.3270 ce         1 4TN      -0.209200
     26 CAI          1.0750     1.0020     7.1620 cf         1 4TN      -0.126200
     27 CAT          0.5670     0.5230     8.4630 c          1 4TN       0.874800
     28 OAG          1.5680    -0.1170     9.1110 o          1 4TN      -0.835800
     29 OAF         -0.5630     0.6680     8.8970 o          1 4TN      -0.835800
     30 HAI          2.1030     0.8110     6.8800 ha         1 4TN       0.114000
     31 HAJ         -0.7570     1.8650     6.6460 ha         1 4TN       0.137000
     32 HAM          2.3450     0.9160     4.8210 ha         1 4TN       0.154000
     33 HAH          1.5040     4.6750     1.3020 ho         1 4TN       0.407000
     34 HAL         -0.3230     4.5400     2.7450 ha         1 4TN       0.116000
     35 HAK         -0.9740     3.6340     4.9580 ha         1 4TN       0.132000
     36 HAO          4.6170     3.0900     3.3550 ha         1 4TN       0.139000
     37 HAN          4.2170    -0.7420     0.2770 ha         1 4TN       0.130000
     38 HAP1         1.8760     0.9600    -0.3460 h1         1 4TN       0.027700
     39 HAP2         1.8760    -0.7830    -0.6550 h1         1 4TN       0.027700
     40 HAA1        -0.3610     1.0210     0.0220 hc         1 4TN       0.045033
     41 HAA2        -0.3610    -0.5300     0.8730 hc         1 4TN       0.045033
     42 HAA3        -0.3610    -0.4910    -0.8950 hc         1 4TN       0.045033
     43 HAB1         7.4230    -0.3310    -1.6260 hc         1 4TN       0.034700
     44 HAB2         5.8230    -0.9650    -1.2160 hc         1 4TN       0.034700
     45 HAB3         6.0400     0.7660    -1.5100 hc         1 4TN       0.034700
     46 HAC1         7.1020    -1.1990     2.1100 hc         1 4TN       0.034700
     47 HAC2         8.1480    -1.5640     0.7310 hc         1 4TN       0.034700
     48 HAC3         6.4390    -2.0210     0.6910 hc         1 4TN       0.034700
     49 HAQ1         7.8640     1.8640    -0.2040 hc         1 4TN       0.038200
     50 HAQ2         8.9030     0.4830     0.1640 hc         1 4TN       0.038200
     51 HAR1         8.3560     0.7320     2.5500 hc         1 4TN       0.043200
     52 HAR2         9.1310     2.1960     1.8620 hc         1 4TN       0.043200
     53 HAD1         6.4920     4.5150     2.2350 hc         1 4TN       0.035867
     54 HAD2         8.1070     4.1630     1.6050 hc         1 4TN       0.035867
     55 HAD3         6.6750     3.7200     0.6660 hc         1 4TN       0.035867
     56 HAE1         7.0260     1.7330     4.4090 hc         1 4TN       0.035867
     57 HAE2         6.6160     3.4440     4.2220 hc         1 4TN       0.035867
     58 HAE3         8.2970     2.9140     4.0660 hc         1 4TN       0.035867
@<TRIPOS>BOND
     1     1     2 1   
     2     1    40 1   
     3     1    41 1   
     4     1    42 1   
     5     2     3 1   
     6     2    38 1   
     7     2    39 1   
     8     3     4 1   
     9     4     5 ar  
    10     4    17 ar  
    11     5     6 ar  
    12     5    37 1   
    13     6    15 ar  
    14     6     7 1   
    15     7     8 1   
    16     7     9 1   
    17     7    10 1   
    18     8    43 1   
    19     8    44 1   
    20     8    45 1   
    21     9    46 1   
    22     9    47 1   
    23     9    48 1   
    24    10    49 1   
    25    10    50 1   
    26    10    11 1   
    27    11    51 1   
    28    11    52 1   
    29    11    12 1   
    30    12    15 1   
    31    12    13 1   
    32    12    14 1   
    33    13    53 1   
    34    13    54 1   
    35    13    55 1   
    36    14    56 1   
    37    14    57 1   
    38    14    58 1   
    39    15    16 ar  
    40    16    17 ar  
    41    16    36 1   
    42    17    18 1   
    43    18    19 ar  
    44    18    20 ar  
    45    19    24 ar  
    46    19    32 1   
    47    20    21 1   
    48    20    22 ar  
    49    21    33 1   
    50    22    34 1   
    51    22    23 ar  
    52    23    24 ar  
    53    23    35 1   
    54    24    25 1   
    55    25    26 2   
    56    25    31 1   
    57    26    27 1   
    58    26    30 1   
    59    27    28 1   
    60    27    29 1   
@<TRIPOS>SUBSTRUCTURE
     1 4TN         1 TEMP              0 ****  ****    0 ROOT
