@<TRIPOS>MOLECULE
4TP
   20    19     1     0     0
SMALL
bcc


@<TRIPOS>ATOM
      1 N          -0.0890   -0.2140   -0.1700 n3        1 4TP     -0.903800
      2 CA          1.3510   -0.0060   -0.1080 c3        1 4TP      0.047500
      3 CB          1.9400   -0.0020    1.3280 c3        1 4TP      0.113100
      4 OG1         1.4070   -1.1060    2.0540 oh        1 4TP     -0.657800
      5 CG2         1.6520    1.3260    2.0700 c3        1 4TP      0.165400
      6 C           2.1380   -0.9840   -1.0300 c         1 4TP      0.913600
      7 O           1.6270   -2.0950   -1.3730 o         1 4TP     -0.882800
      8 OXT         3.2720   -0.6140   -1.4620 o         1 4TP     -0.882800
      9 OP4         1.8640    1.1500    3.4240 os        1 4TP     -0.585200
     10 P           1.3780    2.5230    4.3590 p5        1 4TP      1.320900
     11 OP1        -0.1020    2.6150    4.0810 o         1 4TP     -0.944500
     12 OP2         1.7460    2.0870    5.7550 o         1 4TP     -0.944500
     13 OP3         2.2070    3.6470    3.7900 o         1 4TP     -0.944500
     14 H          -0.2550   -1.1900   -0.3550 hn        1 4TP      0.333300
     15 HN2        -0.4790   -0.0130    0.7350 hn        1 4TP      0.333300
     16 HA          1.5410    1.0320   -0.5150 h1        1 4TP      0.040700
     17 HB          3.0520   -0.1540    1.2500 h1        1 4TP      0.030700
     18 HG1         1.3330   -0.8110    2.9750 ho        1 4TP      0.427000
     19 HG21        2.3350    2.1250    1.6710 h1        1 4TP      0.009700
     20 HG22        0.5870    1.6490    1.8990 h1        1 4TP      0.009700
@<TRIPOS>BOND
     1    1    2 1
     2    1   14 1
     3    1   15 1
     4    2    3 1
     5    2    6 1
     6    2   16 1
     7    3    4 1
     8    3    5 1
     9    3   17 1
    10    4   18 1
    11    5    9 1
    12    5   19 1
    13    5   20 1
    14    6    7 1
    15    6    8 1
    16    9   10 1
    17   10   11 1
    18   10   12 1
    19   10   13 1
@<TRIPOS>SUBSTRUCTURE
     1 4TP         1 TEMP              0 ****  ****    0 ROOT
