@<TRIPOS>MOLECULE
4TQ
   58    62     1     0     0
SMALL
bcc


@<TRIPOS>ATOM
      1 FBH         2.1790   -0.9300    0.2640 f         1 4TQ     -0.237300
      2 CBG         3.1720   -0.1600   -0.2910 c3        1 4TQ      0.687200
      3 FBI         4.0980   -0.0290    0.7160 f         1 4TQ     -0.237300
      4 FBJ         3.7790   -1.0030   -1.1920 f         1 4TQ     -0.237300
      5 CBE         2.6880    1.1540   -0.8900 ca        1 4TQ     -0.171300
      6 CBF         2.8150    2.3410   -0.1670 ca        1 4TQ     -0.052000
      7 CBD         2.1100    1.1490   -2.1620 ca        1 4TQ     -0.077000
      8 CBC         1.6590    2.3460   -2.7150 ca        1 4TQ     -0.136000
      9 CBB         1.7910    3.5390   -2.0070 ca        1 4TQ     -0.089000
     10 CBA         2.3740    3.5430   -0.7330 cp        1 4TQ     -0.136500
     11 CAX         2.5370    4.8200   -0.0140 cp        1 4TQ      0.447800
     12 CAY         3.0680    5.9220   -0.7090 ca        1 4TQ     -0.227300
     13 CAZ         3.2260    7.1310   -0.0400 ca        1 4TQ     -0.133000
     14 NAW         2.1690    4.8880    1.2870 nb        1 4TQ     -0.696000
     15 CAP         2.3130    6.0630    1.9540 ca        1 4TQ      0.493200
     16 CAQ         2.8400    7.2540    1.3080 ca        1 4TQ      0.023300
     17 NAR         2.8730    8.4910    1.9760 nh        1 4TQ     -0.633000
     18 CAV         2.8350    8.4250    3.4220 c3        1 4TQ      0.182800
     19 CAS         3.7430    9.5100    1.4420 c3        1 4TQ      0.178100
     20 CAT         1.9060    7.3780    5.4660 c3        1 4TQ     -0.106100
     21 CAU         1.7890    7.4130    3.9420 c3        1 4TQ      0.092700
     22 NAO         1.9860    6.0920    3.3380 n         1 4TQ     -0.447300
     23 CAM         1.0600    5.0840    3.8380 c         1 4TQ      0.786100
     24 OAN        -0.0760    5.4310    4.2260 o         1 4TQ     -0.608100
     25 NAL         1.5570    3.7900    3.9610 n         1 4TQ     -0.429100
     26 CAH         0.8190    2.6630    4.3660 ca        1 4TQ      0.074600
     27 CAG         1.4620    1.4030    4.2980 ca        1 4TQ     -0.155000
     28 CAI        -0.4980    2.7240    4.8660 ca        1 4TQ     -0.147000
     29 CAJ        -1.1390    1.5600    5.2850 ca        1 4TQ     -0.107000
     30 CAK        -0.5040    0.3250    5.2240 ca        1 4TQ     -0.137000
     31 CAF         0.8060    0.2460    4.7280 ca        1 4TQ     -0.096500
     32 CAD         1.4620   -1.0340    4.6660 cc        1 4TQ      0.213900
     33 OAE         2.7770   -1.0900    4.1690 os        1 4TQ     -0.380800
     34 CAA         3.1300   -2.4430    4.2320 cc        1 4TQ      0.485300
     35 NAB         2.1560   -3.2050    4.7200 nd        1 4TQ     -0.669000
     36 CAC         1.0940   -2.3370    5.0010 cd        1 4TQ      0.241900
     37 H1          3.2660    2.3290    0.8380 ha        1 4TQ      0.158000
     38 H2          2.0180    0.2030   -2.7190 ha        1 4TQ      0.151000
     39 H3          1.1970    2.3470   -3.7140 ha        1 4TQ      0.144000
     40 H4          1.4300    4.4830   -2.4450 ha        1 4TQ      0.144000
     41 H5          3.3610    5.8250   -1.7630 ha        1 4TQ      0.148000
     42 H6          3.6480    7.9900   -0.5840 ha        1 4TQ      0.145000
     43 H7          3.8470    8.1690    3.8520 h1        1 4TQ      0.052700
     44 H8          2.5380    9.4430    3.8050 h1        1 4TQ      0.052700
     45 H9          3.7610   10.3880    2.1400 h1        1 4TQ      0.043367
     46 H10         4.7970    9.1470    1.2920 h1        1 4TQ      0.043367
     47 H11         3.3330    9.8510    0.4540 h1        1 4TQ      0.043367
     48 H12         2.9020    6.9940    5.7900 hc        1 4TQ      0.053700
     49 H13         1.1080    6.7290    5.9040 hc        1 4TQ      0.053700
     50 H14         1.7740    8.4160    5.8560 hc        1 4TQ      0.053700
     51 H15         0.7520    7.7890    3.6770 h1        1 4TQ      0.074700
     52 H16         2.4430    3.5900    3.5460 hn        1 4TQ      0.336500
     53 H17         2.4890    1.3130    3.9060 ha        1 4TQ      0.148000
     54 H18        -1.0390    3.6830    4.9310 ha        1 4TQ      0.176000
     55 H19        -2.1680    1.6260    5.6700 ha        1 4TQ      0.138000
     56 H20        -1.0210   -0.5860    5.5600 ha        1 4TQ      0.138000
     57 H21         4.1300   -2.6910    3.8750 h5        1 4TQ      0.089100
     58 H22         0.1570   -2.7060    5.4150 h4        1 4TQ      0.053100
@<TRIPOS>BOND
     1    1    2 1
     2    2    3 1
     3    2    4 1
     4    2    5 1
     5    5    6 ar
     6    5    7 ar
     7    6   10 ar
     8    6   37 1
     9    7    8 ar
    10    7   38 1
    11    8    9 ar
    12    8   39 1
    13    9   10 ar
    14    9   40 1
    15   10   11 1
    16   11   12 ar
    17   11   14 ar
    18   12   13 ar
    19   12   41 1
    20   13   16 ar
    21   13   42 1
    22   14   15 ar
    23   15   16 ar
    24   15   22 1
    25   16   17 1
    26   17   18 1
    27   17   19 1
    28   18   21 1
    29   18   43 1
    30   18   44 1
    31   19   45 1
    32   19   46 1
    33   19   47 1
    34   20   21 1
    35   20   48 1
    36   20   49 1
    37   20   50 1
    38   21   22 1
    39   21   51 1
    40   22   23 1
    41   23   24 2
    42   23   25 1
    43   25   26 1
    44   25   52 1
    45   26   27 ar
    46   26   28 ar
    47   27   31 ar
    48   27   53 1
    49   28   29 ar
    50   28   54 1
    51   29   30 ar
    52   29   55 1
    53   30   31 ar
    54   30   56 1
    55   31   32 1
    56   32   33 1
    57   32   36 2
    58   33   34 1
    59   34   35 2
    60   34   57 1
    61   35   36 1
    62   36   58 1
@<TRIPOS>SUBSTRUCTURE
     1 4TQ         1 TEMP              0 ****  ****    0 ROOT
