@<TRIPOS>MOLECULE
4TR
   41    43     1     0     0
SMALL
bcc


@<TRIPOS>ATOM
      1 S1           0.0000     0.0000     0.0000 s6         1 4TR       1.273400
      2 O1           1.4210     0.0000     0.0000 o          1 4TR      -0.494800
      3 O2          -0.8220     0.0000     1.1590 o          1 4TR      -0.494800
      4 O3          -0.4130    -1.2260    -0.8010 os         1 4TR      -0.294800
      5 N1          -0.4500     1.3340    -0.8710 nz         1 4TR      -0.220500
      6 C1           0.4480    -1.3200    -1.8470 ca         1 4TR       0.088100
      7 C2           0.2130    -0.5960    -3.0080 ca         1 4TR      -0.238000
      8 C3           1.0890    -0.6930    -4.0700 ca         1 4TR      -0.079000
      9 C4           2.2000    -1.5110    -3.9790 ca         1 4TR      -0.084300
     10 C5           2.4380    -2.2330    -2.8260 ca         1 4TR      -0.023000
     11 C6           1.5670    -2.1350    -1.7560 ca         1 4TR       0.051100
     12 C7           3.1540    -1.6140    -5.1410 c3         1 4TR       0.218100
     13 N2           3.3330     5.4990    -7.7310 n1         1 4TR      -0.321800
     14 C9           3.6520     3.1720    -6.6950 ca         1 4TR       0.110000
     15 C10          3.3370     2.9540    -5.3500 ca         1 4TR      -0.079000
     16 C11          3.5180     1.7070    -4.7960 ca         1 4TR      -0.112500
     17 C12          4.0150     0.6660    -5.5720 ca         1 4TR       0.034600
     18 C13          4.3340     0.8810    -6.9100 ca         1 4TR      -0.112500
     19 C14          4.1510     2.1230    -7.4720 ca         1 4TR      -0.079000
     20 N3           4.1980    -0.5940    -5.0080 nh         1 4TR      -0.414300
     21 N4           7.3340    -0.7320    -3.4520 nc         1 4TR      -0.312000
     22 N5           6.8720    -1.8950    -3.1560 nc         1 4TR      -0.312000
     23 C17          5.6780    -2.0360    -3.6630 cd         1 4TR       0.153400
     24 N6           5.3790    -0.8870    -4.3160 na         1 4TR       0.300500
     25 C15          6.4560    -0.0790    -4.1650 cd         1 4TR       0.153400
     26 Br           1.8920    -3.1230    -0.1780 br         1 4TR       0.001900
     27 HN11        -0.0090     1.2080    -1.7610 hn         1 4TR       0.327800
     28 HN12        -0.0560     2.1980    -0.5540 hn         1 4TR       0.327800
     29 H2          -0.4560     0.1040    -3.4930 ha         1 4TR       0.151000
     30 H3           0.9380    -0.4750    -5.1200 ha         1 4TR       0.142000
     31 H5           3.2720    -2.9210    -2.8970 ha         1 4TR       0.146000
     32 H71          3.4970    -2.5590    -5.5440 h1         1 4TR       0.047200
     33 H72          2.6230    -1.5050    -6.0790 h1         1 4TR       0.047200
     34 H10          2.8790     3.4850    -4.5240 ha         1 4TR       0.125000
     35 H11          3.1650     1.7910    -3.7750 ha         1 4TR       0.117000
     36 H13          4.9250     0.1350    -7.4280 ha         1 4TR       0.117000
     37 H14          4.5160     2.1710    -8.4900 ha         1 4TR       0.125000
     38 H17          5.1810    -2.9280    -3.3020 h5         1 4TR       0.047100
     39 H15          6.8130     0.6240    -4.9080 h5         1 4TR       0.047100
     40 H131        -1.3270     1.3790    -1.3510 hn         1 4TR       0.327800
     41 C8           3.4630     4.4680    -7.2740 cg         1 4TR       0.191800
@<TRIPOS>BOND
     1     1     2 2   
     2     1     3 2   
     3     1     4 1   
     4     1     5 1   
     5     4     6 1   
     6     5    27 1   
     7     5    28 1   
     8     5    40 1   
     9     6     7 ar  
    10     6    11 ar  
    11     7     8 ar  
    12     7    29 1   
    13     8     9 ar  
    14     8    30 1   
    15     9    10 ar  
    16     9    12 1   
    17    10    11 ar  
    18    10    31 1   
    19    11    26 1   
    20    12    20 1   
    21    12    32 1   
    22    12    33 1   
    23    13    41 3   
    24    14    15 ar  
    25    14    19 ar  
    26    14    41 1   
    27    15    16 ar  
    28    15    34 1   
    29    16    17 ar  
    30    16    35 1   
    31    17    18 ar  
    32    17    20 1   
    33    18    19 ar  
    34    18    36 1   
    35    19    37 1   
    36    20    24 1   
    37    21    22 1   
    38    21    25 2   
    39    22    23 2   
    40    23    24 1   
    41    23    38 1   
    42    24    25 1   
    43    25    39 1   
@<TRIPOS>SUBSTRUCTURE
     1 4TR         1 TEMP              0 ****  ****    0 ROOT
