@<TRIPOS>MOLECULE
4TT
   30    33     1     0     0
SMALL
bcc


@<TRIPOS>ATOM
      1 C5          0.0080    0.0350   -0.0240 ca        1 4TT     -0.092800
      2 C6         -0.6590    0.1490   -2.5280 c3        1 4TT     -0.014200
      3 C7         -3.7920   -0.0420   -2.5420 cc        1 4TT     -0.214600
      4 C10         1.4020    0.0550    0.0110 ca        1 4TT     -0.081000
      5 C13        -5.2390    0.0210   -2.6150 cc        1 4TT      0.291200
      6 C15        -0.0740   -0.0970    2.4480 ca        1 4TT     -0.144000
      7 C17         1.3140   -0.0830    2.4400 ca        1 4TT     -0.108000
      8 N4         -2.1060    0.0320    0.9190 na        1 4TT     -0.182400
      9 C9         -0.7340   -0.0350    1.2120 ca        1 4TT     -0.042200
     10 C16         2.0430   -0.0060    1.2410 ca        1 4TT     -0.155000
     11 C1         -2.2340    0.0290   -0.4940 cd        1 4TT     -0.002300
     12 C3         -3.5060    0.0480   -1.1630 cd        1 4TT     -0.049100
     13 N8         -4.7550    0.1370   -0.5130 na        1 4TT     -0.025600
     14 N14        -5.7700    0.1480   -1.3740 nd        1 4TT     -0.502800
     15 C2         -0.9710    0.0710   -1.0940 cc        1 4TT     -0.083400
     16 C11        -1.5340   -0.7440   -3.3870 c3        1 4TT     -0.075400
     17 C12        -2.8920   -0.1450   -3.6940 c3        1 4TT     -0.002100
     18 H6         -0.7570    1.2160   -2.8710 hc        1 4TT      0.053200
     19 H6A         0.4160   -0.1470   -2.6780 hc        1 4TT      0.053200
     20 H10         1.9780    0.1180   -0.9240 ha        1 4TT      0.135000
     21 H13        -5.8560   -0.0260   -3.5120 h4        1 4TT      0.044100
     22 H15        -0.6360   -0.1510    3.3890 ha        1 4TT      0.135000
     23 H17         1.8590   -0.1330    3.3950 ha        1 4TT      0.131000
     24 HN4        -2.7850   -0.3770    1.5090 hn        1 4TT      0.281700
     25 H16         3.1420    0.0060    1.2850 ha        1 4TT      0.132000
     26 HN8        -4.9070    0.3620    0.4410 hn        1 4TT      0.317700
     27 H11        -1.0060   -0.9240   -4.3620 hc        1 4TT      0.048200
     28 H11A       -1.6650   -1.7400   -2.8880 hc        1 4TT      0.048200
     29 H12        -2.7530    0.8820   -4.1350 hc        1 4TT      0.051200
     30 H12A       -3.3890   -0.7750   -4.4830 hc        1 4TT      0.051200
@<TRIPOS>BOND
     1    1    4 ar  
     2    1    9 ar  
     3    1   15 1   
     4    2   15 1   
     5    2   16 1   
     6    2   18 1   
     7    2   19 1   
     8    3    5 1   
     9    3   12 2   
    10    3   17 1   
    11    4   10 ar  
    12    4   20 1   
    13    5   14 2   
    14    5   21 1   
    15    6    7 ar  
    16    6    9 ar  
    17    6   22 1   
    18    7   10 ar  
    19    7   23 1   
    20    8    9 1   
    21    8   11 1   
    22    8   24 1   
    23   10   25 1   
    24   11   12 1   
    25   11   15 2   
    26   12   13 1   
    27   13   14 1   
    28   13   26 1   
    29   16   17 1   
    30   16   27 1   
    31   16   28 1   
    32   17   29 1   
    33   17   30 1   
@<TRIPOS>SUBSTRUCTURE
     1 4TT         1 TEMP              0 ****  ****    0 ROOT
