@<TRIPOS>MOLECULE
molecule
   30    33     1     0     0
SMALL
bcc


@<TRIPOS>ATOM
      1 C5           0.0000     0.0000     0.0000 ca         1 4TT      -0.113800
      2 C6          -0.6210     0.0250    -2.5420 c3         1 4TT      -0.009200
      3 C7          -3.8210    -0.0090    -2.5130 cc         1 4TT      -0.268600
      4 C10          1.3980     0.0000     0.0000 ca         1 4TT      -0.069000
      5 C13         -5.2180    -0.0230    -2.6300 cc         1 4TT       0.337200
      6 C15         -0.0890     0.0010     2.4370 ca         1 4TT      -0.154000
      7 C17          1.2970     0.0010     2.4110 ca         1 4TT      -0.099000
      8 N4          -2.0620    -0.0040     0.8700 na         1 4TT      -0.191400
      9 C9          -0.7420    -0.0010     1.2060 ca         1 4TT      -0.018200
     10 C16          2.0150     0.0000     1.2280 ca         1 4TT      -0.163000
     11 C1          -2.1990    -0.0010    -0.5140 cd         1 4TT       0.004700
     12 C3          -3.5180    -0.0080    -1.1760 cd         1 4TT      -0.011100
     13 N8          -4.7060    -0.0150    -0.4920 na         1 4TT      -0.061600
     14 N14         -5.7410    -0.0280    -1.4330 nd         1 4TT      -0.499800
     15 C2          -0.9710     0.0070    -1.0870 cc         1 4TT      -0.096400
     16 C11         -1.5940    -0.7170    -3.4100 c3         1 4TT      -0.083400
     17 C12         -2.8780     0.0140    -3.6740 c3         1 4TT      -0.000100
     18 H6          -0.6280     1.0600    -2.8620 hc         1 4TT       0.054700
     19 H6A          0.3410    -0.4620    -2.6480 hc         1 4TT       0.054700
     20 H10          1.9670    -0.0010    -0.9220 ha         1 4TT       0.138000
     21 H13         -5.7730    -0.0300    -3.5600 h4         1 4TT       0.050100
     22 H15         -0.6380     0.0010     3.3710 ha         1 4TT       0.133000
     23 H17          1.8370     0.0010     3.3500 ha         1 4TT       0.128000
     24 HN4         -2.8210    -0.0080     1.5230 hn         1 4TT       0.290700
     25 H16          3.0980     0.0000     1.2710 ha         1 4TT       0.127000
     26 HN8         -4.8140    -0.0150     0.5030 hn         1 4TT       0.323700
     27 H11         -1.8490    -1.6340    -2.8930 hc         1 4TT       0.051200
     28 H11A        -1.1120    -0.8730    -4.3680 hc         1 4TT       0.051200
     29 H12         -2.6470     1.0460    -3.9120 hc         1 4TT       0.047200
     30 H12A        -3.3680    -0.4430    -4.5260 hc         1 4TT       0.047200
@<TRIPOS>BOND
     1     1     4 ar
     2     1     9 ar
     3     1    15 1
     4     2    15 1
     5     2    16 1
     6     3     5 1
     7     3    12 2
     8     3    17 1
     9     4    10 ar
    10     5    14 2
    11     6     7 ar
    12     6     9 ar
    13     7    10 ar
    14     8     9 1
    15     8    11 1
    16    11    12 1
    17    11    15 2
    18    12    13 1
    19    13    14 1
    20    16    17 1
    21     2    18 1
    22     2    19 1
    23     4    20 1
    24     5    21 1
    25     6    22 1
    26     7    23 1
    27     8    24 1
    28    10    25 1
    29    13    26 1
    30    16    27 1
    31    16    28 1
    32    17    29 1
    33    17    30 1
@<TRIPOS>SUBSTRUCTURE
     1 4TT         1 TEMP              0 ****  ****    0 ROOT
