@<TRIPOS>MOLECULE
molecule
   23    24     1     0     0
SMALL
bcc


@<TRIPOS>ATOM
      1 C1           0.0000     0.0000     0.0000 ca         1 4TU      -0.099000
      2 C2           1.3790     0.0000     0.0000 ca         1 4TU      -0.093000
      3 C3           1.3840    -0.0000     2.3940 ca         1 4TU      -0.082000
      4 C4           0.0030     0.0060     2.3980 ca         1 4TU      -0.092300
      5 C5          -0.7050     0.0060     1.2050 ca         1 4TU      -0.000400
      6 C6           2.0750     0.0000     1.1950 ca         1 4TU       0.044400
      7 C8          -0.9860     0.0060     3.5430 c3         1 4TU      -0.030100
      8 C9          -2.3650     0.0160     2.8630 c3         1 4TU       0.062000
      9 N10         -2.0860     0.0110     1.4260 n          1 4TU      -0.334000
     10 N11         -4.3270    -0.0850     0.7800 nz         1 4TU      -0.666400
     11 O12         -2.6900     0.1010    -0.7100 o          1 4TU      -0.496100
     12 Cl1          3.8110    -0.0070     1.1920 cl         1 4TU      -0.051400
     13 H1          -0.5390    -0.0000    -0.9400 ha         1 4TU       0.169000
     14 H2           1.9190     0.0000    -0.9390 ha         1 4TU       0.172000
     15 H3           1.9270    -0.0000     3.3310 ha         1 4TU       0.167000
     16 H4          -0.8680    -0.8880     4.1420 hc         1 4TU       0.090200
     17 H5          -2.8940     0.9240     3.1280 h1         1 4TU       0.061700
     18 H6          -4.8780    -0.0980    -0.0550 hn         1 4TU       0.483800
     19 H7          -4.4410    -0.9510     1.2690 hn         1 4TU       0.483800
     20 H8          -0.8590     0.8950     4.1490 hc         1 4TU       0.090200
     21 H9          -2.9080    -0.8830     3.1310 h1         1 4TU       0.061700
     22 C7          -3.0220     0.0130     0.4570 c          1 4TU       0.578100
     23 H113        -4.5500     0.7320     1.3140 hn         1 4TU       0.483800
@<TRIPOS>BOND
     1     7     8 1
     2     7     4 1
     3     8     9 1
     4     3     4 ar
     5     3     6 ar
     6     4     5 ar
     7    12     6 1
     8     6     2 ar
     9     9     5 1
    10     9    22 1
    11     5     1 ar
    12     2     1 ar
    13    10    22 1
    14    22    11 2
    15     1    13 1
    16     2    14 1
    17     3    15 1
    18     7    16 1
    19     8    17 1
    20    10    18 1
    21    10    19 1
    22     7    20 1
    23     8    21 1
    24    23    10 1
@<TRIPOS>SUBSTRUCTURE
     1 4TU         1 TEMP              0 ****  ****    0 ROOT
