@<TRIPOS>MOLECULE
4TV
   54    58     1     0     0
SMALL
bcc


@<TRIPOS>ATOM
      1 C1           0.0000     0.0000     0.0000 c3         1 4TV       0.022600
      2 C3           2.4180     0.0000     0.6600 cc         1 4TV      -0.242300
      3 C4           3.6120     0.0000     0.0000 cd         1 4TV      -0.269300
      4 C5           3.3360     0.0050    -1.3810 cd         1 4TV       0.408200
      5 C7           4.9590    -0.0050     0.6250 ca         1 4TV       0.038000
      6 C8           5.0830    -0.0160     2.0140 ca         1 4TV      -0.113500
      7 C11          7.3490    -0.0100     0.4030 ca         1 4TV      -0.070000
      8 C12          6.0990    -0.0050    -0.1760 ca         1 4TV      -0.113500
      9 C16         11.2700     0.0310     3.6150 ca         1 4TV       0.412200
     10 C17         11.0400    -0.9060     2.6270 ca         1 4TV      -0.198900
     11 C19          9.7930    -0.9450     2.0050 ca         1 4TV       0.055600
     12 C21          9.5700    -3.2430     1.5320 c3         1 4TV       0.115800
     13 C23         10.0120    -4.0760    -0.7760 c3         1 4TV      -0.152000
     14 C24         11.4500    -4.5130    -0.4290 c3         1 4TV      -0.049400
     15 C27          9.5790    -5.0170    -1.8710 c          1 4TV       0.632500
     16 O28          8.4340    -5.1850    -2.2320 o          1 4TV      -0.661500
     17 C30         10.4370    -1.7060    -0.1300 c3         1 4TV       0.115800
     18 N2           1.4400     0.0000    -0.2700 na         1 4TV       0.493400
     19 N6           2.0380     0.0080    -1.5350 nc         1 4TV      -0.649800
     20 C9           6.3320    -0.0210     2.5940 ca         1 4TV      -0.070000
     21 C10          7.4730    -0.0150     1.7920 cp         1 4TV      -0.050000
     22 C13          8.8180    -0.0200     2.4160 cp         1 4TV      -0.108300
     23 C14          9.1350     0.8880     3.4200 ca         1 4TV       0.412200
     24 N15         10.3290     0.8820     3.9810 nb         1 4TV      -0.572000
     25 N20          9.5220    -1.8730     1.0050 nh         1 4TV      -0.384000
     26 C22          9.1130    -4.2230     0.4480 c3         1 4TV      -0.001400
     27 C25         11.8920    -5.1980    -1.7420 c3         1 4TV       0.043000
     28 N26         10.6520    -5.6410    -2.3910 ns         1 4TV      -0.206900
     29 C29         10.0110    -2.6330    -1.2710 c3         1 4TV      -0.001400
     30 H1          -0.2620     0.8860     0.5650 h1         1 4TV       0.021367
     31 H2          -0.2600    -0.8830     0.5710 h1         1 4TV       0.021367
     32 H3          -0.5430    -0.0040    -0.9370 h1         1 4TV       0.021367
     33 H4           2.2800    -0.0030     1.7340 h4         1 4TV       0.149000
     34 H5           4.0700     0.0080    -2.1780 h4         1 4TV       0.008100
     35 H6           4.1960    -0.0200     2.6370 ha         1 4TV       0.107000
     36 H7           8.2350    -0.0080    -0.2200 ha         1 4TV       0.108500
     37 H8           6.0030    -0.0010    -1.2550 ha         1 4TV       0.107000
     38 H9          12.2370     0.0640     4.1020 h4         1 4TV      -0.010900
     39 H10         10.5850    -3.4810     1.8270 h1         1 4TV       0.025200
     40 H11          8.9120    -3.3230     2.3890 h1         1 4TV       0.025200
     41 H12         12.0730    -3.6530    -0.2130 hc         1 4TV       0.036700
     42 H13         11.4510    -5.2180     0.3930 hc         1 4TV       0.036700
     43 H14         10.4040    -0.6780    -0.4710 h1         1 4TV       0.025200
     44 H15         11.4450    -1.9560     0.1800 h1         1 4TV       0.025200
     45 H16          6.4280    -0.0270     3.6730 ha         1 4TV       0.108500
     46 H17          8.3930     1.6050     3.7490 h4         1 4TV      -0.009900
     47 H18          8.0890    -4.0030     0.1710 hc         1 4TV       0.033200
     48 H19          9.1810    -5.2360     0.8250 hc         1 4TV       0.033200
     49 H20         12.5240    -6.0510    -1.5230 h1         1 4TV       0.014700
     50 H21         12.4130    -4.4900    -2.3750 h1         1 4TV       0.014700
     51 H22         10.6100    -6.3190    -3.1260 hn         1 4TV       0.193500
     52 H23          9.0130    -2.3660    -1.5990 hc         1 4TV       0.033200
     53 H24         10.7070    -2.5350    -2.0950 hc         1 4TV       0.033200
     54 Cl1         12.2890    -2.0200     2.1640 cl         1 4TV       0.002600
@<TRIPOS>BOND
     1     1    18 1   
     2     1    30 1   
     3     1    31 1   
     4     1    32 1   
     5     2     3 2   
     6     2    18 1   
     7     2    33 1   
     8     3     4 1   
     9     3     5 1   
    10     4    19 2   
    11     4    34 1   
    12     5     6 ar  
    13     5     8 ar  
    14     6    20 ar  
    15     6    35 1   
    16     7     8 ar  
    17     7    21 ar  
    18     7    36 1   
    19     8    37 1   
    20     9    10 ar  
    21     9    24 ar  
    22     9    38 1   
    23    10    11 ar  
    24    10    54 1   
    25    11    22 ar  
    26    11    25 1   
    27    12    25 1   
    28    12    26 1   
    29    12    39 1   
    30    12    40 1   
    31    13    14 1   
    32    13    15 1   
    33    13    26 1   
    34    13    29 1   
    35    14    27 1   
    36    14    41 1   
    37    14    42 1   
    38    15    16 2   
    39    15    28 1   
    40    17    25 1   
    41    17    29 1   
    42    17    43 1   
    43    17    44 1   
    44    18    19 1   
    45    20    21 ar  
    46    20    45 1   
    47    21    22 1   
    48    22    23 ar  
    49    23    24 ar  
    50    23    46 1   
    51    26    47 1   
    52    26    48 1   
    53    27    28 1   
    54    27    49 1   
    55    27    50 1   
    56    28    51 1   
    57    29    52 1   
    58    29    53 1   
@<TRIPOS>SUBSTRUCTURE
     1 4TV         1 TEMP              0 ****  ****    0 ROOT
