@<TRIPOS>MOLECULE
molecule
   43    45     1     0     0
SMALL
bcc


@<TRIPOS>ATOM
      1 C1           0.0000     0.0000     0.0000 c3         1 4TW      -0.246300
      2 S2           1.8140     0.0000     0.0000 s6         1 4TW       1.326900
      3 O3           2.3130     0.0000     1.3310 o          1 4TW      -0.626300
      4 O4           2.3130    -0.9110    -0.9690 o          1 4TW      -0.626300
      5 N5           2.2270     1.4910    -0.5910 nu         1 4TW      -0.770500
      6 C6           1.9060     2.6420     0.1320 ca         1 4TW       0.132600
      7 C7           2.1350     2.6910     1.5010 ca         1 4TW      -0.152000
      8 C8           1.8160     3.8310     2.2120 ca         1 4TW      -0.106000
      9 C9           1.2700     4.9230     1.5630 ca         1 4TW      -0.119000
     10 C10          1.0420     4.8780     0.2000 ca         1 4TW      -0.063300
     11 C11          1.3630     3.7430    -0.5180 ca         1 4TW      -0.130000
     12 C12          0.4460     6.0710    -0.5030 c3         1 4TW      -0.103100
     13 C13          1.5530     6.9800    -0.9730 c          1 4TW       0.650100
     14 O14          2.7100     6.6890    -0.7590 o          1 4TW      -0.569100
     15 N15          1.2550     8.1170    -1.6330 ns         1 4TW      -0.443100
     16 C16          2.2810     8.9600    -2.0690 cc         1 4TW       0.091500
     17 C17          2.1010    10.1100    -2.7290 cd         1 4TW      -0.208000
     18 C18          3.2780    10.7810    -3.0610 cd         1 4TW      -0.058000
     19 C19          4.4050    10.1630    -2.6620 cc         1 4TW      -0.113100
     20 S20          3.9970     8.6720    -1.8240 ss         1 4TW      -0.001800
     21 C21          3.2860    12.0690    -3.7940 ca         1 4TW       0.053000
     22 C22          2.0900    12.6800    -4.1860 ca         1 4TW      -0.270300
     23 C23          2.1410    13.8810    -4.8610 ca         1 4TW       0.456200
     24 N24          3.2980    14.4550    -5.1390 nb         1 4TW      -0.732000
     25 C25          4.4500    13.9120    -4.7870 ca         1 4TW       0.647500
     26 C26          4.4880    12.7100    -4.1070 ca         1 4TW      -0.280300
     27 F27          5.6050    14.5410    -5.0960 f          1 4TW      -0.220200
     28 H1          -0.3610     0.6340    -0.8000 h1         1 4TW       0.100700
     29 H2          -0.3610    -1.0100    -0.1490 h1         1 4TW       0.100700
     30 H3          -0.3610     0.3760     0.9500 h1         1 4TW       0.100700
     31 H4           2.7310     1.5650    -1.4520 hn         1 4TW       0.468800
     32 H5           2.5620     1.8360     2.0100 ha         1 4TW       0.186000
     33 H6           1.9940     3.8700     3.2800 ha         1 4TW       0.140000
     34 H7           1.0200     5.8150     2.1230 ha         1 4TW       0.132000
     35 H8           1.1830     3.7090    -1.5860 ha         1 4TW       0.133000
     36 H9          -0.1330     5.7360    -1.3550 hc         1 4TW       0.070700
     37 H10         -0.1970     6.6100     0.1820 hc         1 4TW       0.070700
     38 H11          0.3000     8.3560    -1.8130 hn         1 4TW       0.332500
     39 H12          1.1200    10.4890    -2.9860 ha         1 4TW       0.146000
     40 H13          5.4100    10.5300    -2.8280 h4         1 4TW       0.175000
     41 H14          1.1370    12.2160    -3.9620 ha         1 4TW       0.142000
     42 H15          1.2200    14.3610    -5.1680 h4         1 4TW       0.029100
     43 H16          5.4360    12.2690    -3.8210 ha         1 4TW       0.153000
@<TRIPOS>BOND
     1    23    24 ar  
     2    23    22 ar  
     3    24    25 ar  
     4    22    21 ar  
     5    25    27 1   
     6    25    26 ar  
     7    21    26 ar  
     8    21    18 1   
     9    19    18 2   
    10    19    20 1   
    11    18    17 1   
    12    20    16 1   
    13    17    16 2   
    14    16    15 1   
    15    15    13 1   
    16    14    13 2   
    17    13    12 1   
    18    12    10 1   
    19    10     9 ar  
    20    10    11 ar  
    21     9     8 ar  
    22    11     6 ar  
    23     8     7 ar  
    24     6     7 ar  
    25     6     5 1   
    26     5     2 1   
    27     4     2 2   
    28     2     1 1   
    29     2     3 2   
    30     1    28 1   
    31     1    29 1   
    32     1    30 1   
    33     5    31 1   
    34     7    32 1   
    35     8    33 1   
    36     9    34 1   
    37    11    35 1   
    38    12    36 1   
    39    12    37 1   
    40    15    38 1   
    41    17    39 1   
    42    19    40 1   
    43    22    41 1   
    44    23    42 1   
    45    26    43 1   
@<TRIPOS>SUBSTRUCTURE
     1 4TW         1 TEMP              0 ****  ****    0 ROOT
