@<TRIPOS>MOLECULE
molecule
   39    39     1     0     0
SMALL
bcc


@<TRIPOS>ATOM
      1 C8           0.0000     0.0000     0.0000 ca         1 4TX      -0.218000
      2 C6          -2.7030     0.0100    -0.0680 c3         1 4TX       0.130400
      3 C5          -4.2190     0.0150     0.1340 c3         1 4TX      -0.090400
      4 C1          -6.4330     0.0250    -1.0250 c3         1 4TX      -0.163000
      5 C9           1.3810     0.0000     0.0000 ca         1 4TX      -0.052300
      6 C10          2.0730     0.0000     1.1980 ca         1 4TX      -0.178000
      7 C11          1.3840    -0.0010     2.3960 ca         1 4TX      -0.097000
      8 O           -6.4630     0.0320    -3.3810 o          1 4TX      -0.848800
      9 C           -7.1190     0.0320    -2.3670 c          1 4TX       0.901600
     10 O1          -8.4590     0.0370    -2.4360 o          1 4TX      -0.848800
     11 C2          -6.8380     1.2740    -0.2400 c3         1 4TX      -0.067100
     12 C3          -6.8470    -1.2250    -0.2460 c3         1 4TX      -0.067100
     13 C4          -4.9160     0.0200    -1.2290 c3         1 4TX      -0.050400
     14 C7          -0.6930    -0.0010     1.2020 ca         1 4TX       0.160100
     15 C12          0.0040    -0.0020     2.4010 ca         1 4TX      -0.125300
     16 C13         -0.7460    -0.0030     3.7080 c3         1 4TX      -0.032800
     17 C14          2.1350     0.0000    -1.3050 c3         1 4TX      -0.046800
     18 H13         -0.5420    -0.0000    -0.9380 ha         1 4TX       0.145000
     19 H12         -2.4090     0.8950    -0.6200 h1         1 4TX       0.033700
     20 H11         -2.4160    -0.8740    -0.6250 h1         1 4TX       0.033700
     21 H10         -4.5130    -0.8700     0.6860 hc         1 4TX       0.048700
     22 H9          -4.5060     0.8990     0.6900 hc         1 4TX       0.048700
     23 H14          3.1560     0.0000     1.1960 ha         1 4TX       0.120000
     24 H15          1.9290    -0.0010     3.3330 ha         1 4TX       0.124000
     25 H2          -6.6140     1.1300     0.8100 hc         1 4TX       0.022700
     26 H3          -7.9010     1.4480    -0.3610 hc         1 4TX       0.022700
     27 H1          -6.2880     2.1300    -0.6120 hc         1 4TX       0.022700
     28 H4          -7.9100    -1.3910    -0.3690 hc         1 4TX       0.022700
     29 H5          -6.6210    -1.0870     0.8040 hc         1 4TX       0.022700
     30 H6          -6.3020    -2.0820    -0.6230 hc         1 4TX       0.022700
     31 H7          -4.6220     0.9050    -1.7810 hc         1 4TX       0.046700
     32 H8          -4.6290    -0.8640    -1.7840 hc         1 4TX       0.046700
     33 H16         -1.3710    -0.8860     3.7650 hc         1 4TX       0.040033
     34 H18         -0.0390    -0.0080     4.5300 hc         1 4TX       0.040033
     35 H17         -1.3650     0.8830     3.7700 hc         1 4TX       0.040033
     36 H19          3.2000    -0.0260    -1.1070 hc         1 4TX       0.040367
     37 H21          1.8540    -0.8710    -1.8840 hc         1 4TX       0.040367
     38 H20          1.8930     0.8970    -1.8620 hc         1 4TX       0.040367
     39 O2          -2.0520     0.0040     1.2030 os         1 4TX      -0.330900
@<TRIPOS>BOND
     1     6     7 ar
     2     6     5 ar
     3     7    15 ar
     4    17     5 1
     5     5     1 ar
     6    15    16 1
     7    15    14 ar
     8     1    14 ar
     9    14    39 1
    10    39     2 1
    11     2     3 1
    12     3    13 1
    13    13     4 1
    14    12     4 1
    15    11     4 1
    16     4     9 1
    17     9     8 1
    18     9    10 1
    19     1    18 1
    20     2    19 1
    21     2    20 1
    22     3    21 1
    23     3    22 1
    24     6    23 1
    25     7    24 1
    26    11    25 1
    27    11    26 1
    28    11    27 1
    29    12    28 1
    30    12    29 1
    31    12    30 1
    32    13    31 1
    33    13    32 1
    34    16    33 1
    35    16    34 1
    36    16    35 1
    37    17    36 1
    38    17    37 1
    39    17    38 1
@<TRIPOS>SUBSTRUCTURE
     1 4TX         1 TEMP              0 ****  ****    0 ROOT
