@<TRIPOS>MOLECULE
4TX
   39    39     1     0     0
SMALL
bcc


@<TRIPOS>ATOM
      1 C8          0.1100    0.0030   -0.0780 ca        1 4TX     -0.207000
      2 C6         -2.6920    0.0110   -0.1380 c3        1 4TX      0.126400
      3 C5         -4.1800    0.0150    0.1660 c3        1 4TX     -0.085400
      4 C1         -6.4720    0.0250   -0.9460 c3        1 4TX     -0.183000
      5 C9          1.5090   -0.0010   -0.0070 ca        1 4TX     -0.050300
      6 C10         2.1390   -0.0050    1.2380 ca        1 4TX     -0.176000
      7 C11         1.3800   -0.0050    2.4090 ca        1 4TX     -0.105000
      8 O          -6.4110    0.0310   -3.3840 o         1 4TX     -0.840800
      9 C          -7.1510    0.0310   -2.3610 c         1 4TX      0.920600
     10 O1         -8.4130    0.0360   -2.3970 o         1 4TX     -0.840800
     11 C2         -6.9310    1.2670   -0.2060 c3        1 4TX     -0.064100
     12 C3         -6.9400   -1.2160   -0.2120 c3        1 4TX     -0.064100
     13 C4         -4.9620    0.0210   -1.1310 c3        1 4TX     -0.054400
     14 C7         -0.6470    0.0030    1.0970 ca        1 4TX      0.146100
     15 C12        -0.0130   -0.0020    2.3650 ca        1 4TX     -0.115300
     16 C13        -0.8290   -0.0020    3.5980 c3        1 4TX     -0.037800
     17 C14         2.3000    0.0000   -1.2600 c3        1 4TX     -0.051800
     18 H13        -0.3770    0.0060   -1.0640 ha        1 4TX      0.145000
     19 H12        -2.4000   -0.9060   -0.7130 h1        1 4TX      0.037700
     20 H11        -2.3940    0.9280   -0.7090 h1        1 4TX      0.037700
     21 H10        -4.4390   -0.8890    0.7750 hc        1 4TX      0.045700
     22 H9         -4.4330    0.9170    0.7800 hc        1 4TX      0.045700
     23 H14         3.2360   -0.0080    1.3000 ha        1 4TX      0.121000
     24 H15         1.8880   -0.0090    3.3850 ha        1 4TX      0.122000
     25 H2         -6.6290    1.2330    0.8700 hc        1 4TX      0.018367
     26 H3         -8.0450    1.3380   -0.2660 hc        1 4TX      0.018367
     27 H1         -6.4900    2.1810   -0.6700 hc        1 4TX      0.018367
     28 H4         -6.6380   -1.1890    0.8640 hc        1 4TX      0.018367
     29 H5         -6.5050   -2.1310   -0.6810 hc        1 4TX      0.018367
     30 H6         -8.0540   -1.2790   -0.2730 hc        1 4TX      0.018367
     31 H7         -4.6870   -0.8790   -1.7430 hc        1 4TX      0.048700
     32 H8         -4.6810    0.9220   -1.7390 hc        1 4TX      0.048700
     33 H16        -1.4880    0.9020    3.6190 hc        1 4TX      0.042700
     34 H18        -0.1870   -0.0040    4.5120 hc        1 4TX      0.042700
     35 H17        -1.4910   -0.9040    3.6170 hc        1 4TX      0.042700
     36 H19         3.3970   -0.0230   -1.0480 hc        1 4TX      0.040700
     37 H21         2.0410   -0.8920   -1.8830 hc        1 4TX      0.040700
     38 H20         2.0750    0.9180   -1.8590 hc        1 4TX      0.040700
     39 O2         -2.0220    0.0060    1.1360 os        1 4TX     -0.332900
@<TRIPOS>BOND
     1    1    5 ar  
     2    1   14 ar  
     3    1   18 1   
     4    2    3 1   
     5    2   19 1   
     6    2   20 1   
     7    2   39 1   
     8    3   13 1   
     9    3   21 1   
    10    3   22 1   
    11    4    9 1   
    12    4   11 1   
    13    4   12 1   
    14    4   13 1   
    15    5    6 ar  
    16    5   17 1   
    17    6    7 ar  
    18    6   23 1   
    19    7   15 ar  
    20    7   24 1   
    21    8    9 1   
    22    9   10 1   
    23   11   25 1   
    24   11   26 1   
    25   11   27 1   
    26   12   28 1   
    27   12   29 1   
    28   12   30 1   
    29   13   31 1   
    30   13   32 1   
    31   14   15 ar  
    32   14   39 1   
    33   15   16 1   
    34   16   33 1   
    35   16   34 1   
    36   16   35 1   
    37   17   36 1   
    38   17   37 1   
    39   17   38 1   
@<TRIPOS>SUBSTRUCTURE
     1 4TX         1 TEMP              0 ****  ****    0 ROOT
