@<TRIPOS>MOLECULE
4TY
   37    37     1     0     0
SMALL
bcc


@<TRIPOS>ATOM
      1 C4           0.0000     0.0000     0.0000 ca         1 4TY      -0.117300
      2 C5          -0.7530     0.0060    -1.3050 c3         1 4TY       0.026000
      3 C6          -0.7730     1.4590    -3.2610 c          1 4TY       0.698100
      4 C11         -0.7960    -1.3910    -1.8670 c          1 4TY       0.560100
      5 C7          -0.9620     2.8480    -5.1930 c3         1 4TY       0.195800
      6 C8          -1.5660     1.7240    -6.0390 c3         1 4TY      -0.029100
      7 C9          -0.0900     3.7390    -6.0790 c3         1 4TY      -0.029100
      8 C10         -2.0880     3.6830    -4.5790 c3         1 4TY      -0.029100
      9 C12          1.3820     0.0000     0.0000 ca         1 4TY      -0.087500
     10 C13          2.0730     0.0000     1.1970 ca         1 4TY      -0.074000
     11 N1          -0.0770     0.8940    -2.2540 ns         1 4TY      -0.149900
     12 N2          -1.3760    -2.3840    -1.1620 ns         1 4TY      -0.050400
     13 C3          -0.6920    -0.0000     1.1960 ca         1 4TY      -0.087500
     14 Br1          2.3270    -0.0010     4.0330 br         1 4TY      -0.116100
     15 C1           1.3810    -0.0010     2.3950 ca         1 4TY       0.038100
     16 C2          -0.0010    -0.0050     2.3940 ca         1 4TY      -0.074000
     17 O1          -0.1510     2.2740    -4.1340 os         1 4TY      -0.415900
     18 O2          -1.9600     1.2320    -3.3820 o          1 4TY      -0.665000
     19 O3          -0.3110    -1.6230    -2.9540 o          1 4TY      -0.605100
     20 O4          -1.4160    -3.6970    -1.6900 oh         1 4TY      -0.436100
     21 H1          -1.7640     0.3590    -1.1370 h1         1 4TY       0.069700
     22 H2          -0.8600     0.9050    -6.1080 hc         1 4TY       0.019144
     23 H3          -2.4810     1.3740    -5.5760 hc         1 4TY       0.019144
     24 H4          -1.7840     2.0970    -7.0330 hc         1 4TY       0.019144
     25 H5          -0.6970     4.1710    -6.8650 hc         1 4TY       0.019144
     26 H6           0.3430     4.5310    -5.4800 hc         1 4TY       0.019144
     27 H7           0.7020     3.1450    -6.5190 hc         1 4TY       0.019144
     28 H8          -1.7120     4.2130    -3.7120 hc         1 4TY       0.019144
     29 H9          -2.4490     4.3960    -5.3100 hc         1 4TY       0.019144
     30 H10         -2.8990     3.0300    -4.2790 hc         1 4TY       0.019144
     31 H11          1.9230     0.0000    -0.9380 ha         1 4TY       0.115500
     32 H12          3.1570    -0.0000     1.1970 ha         1 4TY       0.121000
     33 H13          0.8950     1.1020    -2.1400 hn         1 4TY       0.184500
     34 H14         -1.8100    -2.1850    -0.2830 hn         1 4TY       0.156500
     35 H15         -1.7750    -0.0040     1.1950 ha         1 4TY       0.115500
     36 H16         -0.5440    -0.0060     3.3320 ha         1 4TY       0.121000
     37 H17         -2.0470    -4.2090    -1.2120 ho         1 4TY       0.392000
@<TRIPOS>BOND
     1     1     2 1   
     2     1     9 ar  
     3     1    13 ar  
     4     2     4 1   
     5     2    11 1   
     6     2    21 1   
     7     3    11 1   
     8     3    17 1   
     9     3    18 2   
    10     4    12 1   
    11     4    19 2   
    12     5     6 1   
    13     5     7 1   
    14     5     8 1   
    15     5    17 1   
    16     6    22 1   
    17     6    23 1   
    18     6    24 1   
    19     7    25 1   
    20     7    26 1   
    21     7    27 1   
    22     8    28 1   
    23     8    29 1   
    24     8    30 1   
    25     9    10 ar  
    26     9    31 1   
    27    10    15 ar  
    28    10    32 1   
    29    11    33 1   
    30    12    20 1   
    31    12    34 1   
    32    13    16 ar  
    33    13    35 1   
    34    14    15 1   
    35    15    16 ar  
    36    16    36 1   
    37    20    37 1   
@<TRIPOS>SUBSTRUCTURE
     1 4TY         1 TEMP              0 ****  ****    0 ROOT
