@<TRIPOS>MOLECULE
4TZ
   41    43     1     0     0
SMALL
bcc


@<TRIPOS>ATOM
      1 S2           0.0000     0.0000     0.0000 s6         1 4TZ       1.278400
      2 O1           1.4200     0.0000     0.0000 o          1 4TZ      -0.494800
      3 O2          -0.8230     0.0000     1.1590 o          1 4TZ      -0.494800
      4 O3          -0.4130    -1.2270    -0.8010 os         1 4TZ      -0.310800
      5 N1          -0.4520     1.3340    -0.8700 nz         1 4TZ      -0.218500
      6 N2           3.5990    -3.7160    -4.9310 nh         1 4TZ      -0.422300
      7 N3           2.9890    -3.5620    -6.1840 na         1 4TZ       0.313500
      8 N4           2.1650    -2.6980    -7.9620 nc         1 4TZ      -0.326000
      9 N5           2.0380    -3.9740    -8.0580 nc         1 4TZ      -0.326000
     10 N6           5.0000    -9.8670    -2.5880 n1         1 4TZ      -0.324800
     11 C1           2.7410    -2.3980    -6.8310 cd         1 4TZ       0.140400
     12 C2           2.5340    -4.5460    -6.9940 cd         1 4TZ       0.140400
     13 C3           3.8860    -4.9890    -4.4500 ca         1 4TZ       0.025600
     14 C4           5.1550    -5.5300    -4.6280 ca         1 4TZ      -0.103000
     15 C5           5.4430    -6.7870    -4.1480 ca         1 4TZ      -0.078500
     16 C6           4.4550    -7.5250    -3.4900 ca         1 4TZ       0.087000
     17 C7           3.1800    -6.9820    -3.3170 ca         1 4TZ      -0.078500
     18 C8           2.9000    -5.7210    -3.7950 ca         1 4TZ      -0.103000
     19 C9           4.7510    -8.8360    -2.9930 cg         1 4TZ       0.194800
     20 C11          2.7720    -2.1870    -3.2390 ca         1 4TZ      -0.079300
     21 C12          2.6820    -2.7350    -1.9740 ca         1 4TZ      -0.040000
     22 C13          1.6170    -2.4150    -1.1550 ca         1 4TZ      -0.089500
     23 C14          0.6370    -1.5420    -1.6040 ca         1 4TZ       0.002100
     24 C15          0.7260    -0.9980    -2.8760 ca         1 4TZ      -0.089500
     25 C16          1.7950    -1.3180    -3.6890 ca         1 4TZ      -0.040000
     26 HN11         0.3490     1.8430    -1.1880 hn         1 4TZ       0.323467
     27 HN12        -0.5120     0.7800    -1.7020 hn         1 4TZ       0.323467
     28 H1           2.3000    -1.4090    -6.8240 h5         1 4TZ       0.062600
     29 H2           2.4010    -5.5400    -6.5850 h5         1 4TZ       0.062600
     30 H4           5.9600    -5.2120    -5.2800 ha         1 4TZ       0.124500
     31 H5           6.3910    -7.2350    -4.4210 ha         1 4TZ       0.127000
     32 H7           2.2850    -7.5480    -3.0870 ha         1 4TZ       0.127000
     33 H8           1.8440    -5.4770    -3.8190 ha         1 4TZ       0.124500
     34 H101         3.9500    -1.6280    -4.7220 h1         1 4TZ       0.056200
     35 H102         4.7190    -2.8570    -3.4550 h1         1 4TZ       0.056200
     36 H12          3.4190    -3.2940    -1.4110 ha         1 4TZ       0.131500
     37 H13          1.3660    -2.9160    -0.2270 ha         1 4TZ       0.099000
     38 H15          0.1510    -0.0990    -3.0590 ha         1 4TZ       0.099000
     39 H16          1.7960    -0.5540    -4.4580 ha         1 4TZ       0.131500
     40 H131        -1.3290     1.7740    -1.0670 hn         1 4TZ       0.323467
     41 C10          3.9350    -2.5360    -4.1300 c3         1 4TZ       0.268100
@<TRIPOS>BOND
     1     1     2 2   
     2     1     3 2   
     3     1     4 1   
     4     1     5 1   
     5     4    23 1   
     6     5    26 1   
     7     5    27 1   
     8     5    40 1   
     9     6     7 1   
    10     6    13 1   
    11     6    41 1   
    12     7    11 1   
    13     7    12 1   
    14     8     9 1   
    15     8    11 2   
    16     9    12 2   
    17    10    19 3   
    18    11    28 1   
    19    12    29 1   
    20    13    14 ar  
    21    13    18 ar  
    22    14    15 ar  
    23    14    30 1   
    24    15    16 ar  
    25    15    31 1   
    26    16    17 ar  
    27    16    19 1   
    28    17    18 ar  
    29    17    32 1   
    30    18    33 1   
    31    20    21 ar  
    32    20    25 ar  
    33    20    41 1   
    34    21    22 ar  
    35    21    36 1   
    36    22    23 ar  
    37    22    37 1   
    38    23    24 ar  
    39    24    25 ar  
    40    24    38 1   
    41    25    39 1   
    42    34    41 1   
    43    35    41 1   
@<TRIPOS>SUBSTRUCTURE
     1 4TZ         1 TEMP              0 ****  ****    0 ROOT
