@<TRIPOS>MOLECULE
molecule
   46    47     1     0     0
SMALL
bcc


@<TRIPOS>ATOM
      1 CAB          0.0000     0.0000     0.0000 c3         1 4U5      -0.078433
      2 CAX          1.5300     0.0000     0.0000 c3         1 4U5      -0.139000
      3 CAC          2.0400     0.0000     1.4420 c3         1 4U5      -0.078433
      4 CAD          2.0390    -1.2500    -0.7220 c3         1 4U5      -0.078433
      5 CAR          2.0330     1.2310    -0.7110 c          1 4U5       0.679100
      6 OAF          1.2440     2.0290    -1.1720 o          1 4U5      -0.607100
      7 N            3.3570     1.4440    -0.8340 ns         1 4U5      -0.560900
      8 CA           3.8450     2.6400    -1.5260 c3         1 4U5       0.107000
      9 C            3.8970     3.7940    -0.5560 c          1 4U5       0.661100
     10 O            3.5580     3.6320     0.5970 o          1 4U5      -0.563100
     11 NAO          4.3180     5.0040    -0.9730 ns         1 4U5      -0.467400
     12 OAG          4.3660     6.0880    -0.0630 oh         1 4U5      -0.361100
     13 CAU          5.2270     2.3780    -2.0680 ca         1 4U5      -0.122300
     14 CAK          6.1370     1.6560    -1.3170 ca         1 4U5      -0.110500
     15 CAI          7.4030     1.4140    -1.8090 ca         1 4U5      -0.126500
     16 CAJ          5.5780     2.8550    -3.3180 ca         1 4U5      -0.110500
     17 CAH          6.8410     2.6170    -3.8200 ca         1 4U5      -0.126500
     18 CAS          7.7640     1.8970    -3.0650 ca         1 4U5       0.030000
     19 CAT          9.1250     1.6390    -3.6000 cc         1 4U5      -0.273300
     20 CAM          9.6100     2.0550    -4.8050 cd         1 4U5      -0.094300
     21 CAL         10.1510     0.9240    -2.9530 cc         1 4U5       0.350200
     22 NAN         11.1960     0.9130    -3.7380 nd         1 4U5      -0.507800
     23 NAW         10.8810     1.6160    -4.9080 na         1 4U5       0.070400
     24 CAA         11.7770     1.8390    -6.0440 c3         1 4U5       0.061600
     25 H1          -0.3610     0.0020    -1.0210 hc         1 4U5       0.042144
     26 H2          -0.3610    -0.8850     0.5090 hc         1 4U5       0.042144
     27 H3          -0.3610     0.8840     0.5120 hc         1 4U5       0.042144
     28 H4           1.5260    -0.7690     2.0060 hc         1 4U5       0.042144
     29 H5           3.1050    -0.1980     1.4480 hc         1 4U5       0.042144
     30 H6           1.8500     0.9670     1.8920 hc         1 4U5       0.042144
     31 H7           1.9280    -1.1190    -1.7920 hc         1 4U5       0.042144
     32 H8           3.0850    -1.4030    -0.4840 hc         1 4U5       0.042144
     33 H9           1.4650    -2.1110    -0.4020 hc         1 4U5       0.042144
     34 H10          4.0080     0.7810    -0.4620 hn         1 4U5       0.326500
     35 H11          3.1760     2.8830    -2.3420 h1         1 4U5       0.097700
     36 H12          4.5480     5.1500    -1.9360 hn         1 4U5       0.320500
     37 H13          4.3180     6.9010    -0.5390 ho         1 4U5       0.395000
     38 H14          5.8560     1.2810    -0.3400 ha         1 4U5       0.133000
     39 H15          8.1160     0.8510    -1.2190 ha         1 4U5       0.133000
     40 H16          4.8600     3.4160    -3.9040 ha         1 4U5       0.133000
     41 H17          7.1160     2.9930    -4.7980 ha         1 4U5       0.133000
     42 H18          9.0700     2.6320    -5.5470 h4         1 4U5       0.172000
     43 H19         10.0860     0.4630    -1.9750 h4         1 4U5       0.052100
     44 H20         11.3500     1.3940    -6.9340 h1         1 4U5       0.057033
     45 H21         11.9050     2.9040    -6.1990 h1         1 4U5       0.057033
     46 H22         12.7390     1.3860    -5.8400 h1         1 4U5       0.057033
@<TRIPOS>BOND
     1    24    23 1   
     2    20    23 1   
     3    20    19 2   
     4     6     5 2   
     5    23    22 1   
     6    15    14 ar  
     7    15    18 ar  
     8    14    13 ar  
     9     4     2 1   
    10    19    18 1   
    11    19    21 1   
    12    18    17 ar  
    13    22    21 2   
    14     5     2 1   
    15     5     7 1   
    16    13     8 1   
    17    13    16 ar  
    18     8     7 1   
    19     8     9 1   
    20     2     1 1   
    21     2     3 1   
    22    17    16 ar  
    23    11     9 1   
    24    11    12 1   
    25     9    10 2   
    26     1    25 1   
    27     1    26 1   
    28     1    27 1   
    29     3    28 1   
    30     3    29 1   
    31     3    30 1   
    32     4    31 1   
    33     4    32 1   
    34     4    33 1   
    35     7    34 1   
    36     8    35 1   
    37    11    36 1   
    38    12    37 1   
    39    14    38 1   
    40    15    39 1   
    41    16    40 1   
    42    17    41 1   
    43    20    42 1   
    44    21    43 1   
    45    24    44 1   
    46    24    45 1   
    47    24    46 1   
@<TRIPOS>SUBSTRUCTURE
     1 4U5         1 TEMP              0 ****  ****    0 ROOT
