@<TRIPOS>MOLECULE
molecule
   53    54     1     0     0
SMALL
bcc


@<TRIPOS>ATOM
      1 CAA          0.0000     0.0000     0.0000 c3         1 4U6      -0.079100
      2 CBB          1.5300     0.0000     0.0000 c3         1 4U6      -0.137000
      3 CAB          2.0400     0.0000     1.4420 c3         1 4U6      -0.079100
      4 CAC          2.0400    -1.2500    -0.7210 c3         1 4U6      -0.079100
      5 CAV          2.0330     1.2300    -0.7110 c          1 4U6       0.679100
      6 OAF          1.2450     2.0290    -1.1720 o          1 4U6      -0.596100
      7 N            3.3580     1.4430    -0.8340 ns         1 4U6      -0.568900
      8 CA           3.8460     2.6400    -1.5250 c3         1 4U6       0.100000
      9 C            3.8960     3.7930    -0.5570 c          1 4U6       0.658100
     10 O            3.5580     3.6330     0.5970 o          1 4U6      -0.545100
     11 NAR          4.3180     5.0040    -0.9720 ns         1 4U6      -0.470400
     12 OAH          4.3660     6.0880    -0.0630 oh         1 4U6      -0.354100
     13 CAZ          5.2280     2.3780    -2.0670 ca         1 4U6      -0.077300
     14 CAO          6.1380     1.6570    -1.3150 ca         1 4U6      -0.113500
     15 CAM          7.4040     1.4140    -1.8060 ca         1 4U6      -0.102000
     16 CAN          5.5790     2.8550    -3.3170 ca         1 4U6      -0.113500
     17 CAL          6.8430     2.6180    -3.8180 ca         1 4U6      -0.102000
     18 CAX          7.7650     1.8970    -3.0620 cp         1 4U6      -0.066000
     19 CAY          9.1260     1.6390    -3.5960 cp         1 4U6      -0.003000
     20 CAP          9.4850     2.1220    -4.8500 ca         1 4U6      -0.057000
     21 CAK         10.0480     0.9180    -2.8380 ca         1 4U6      -0.072000
     22 CAI         11.3160     0.6780    -3.3330 ca         1 4U6      -0.096000
     23 CAJ         11.6770     1.1500    -4.5790 ca         1 4U6      -0.135000
     24 CAW         10.7640     1.8770    -5.3450 ca         1 4U6      -0.182900
     25 CAT         11.1540     2.3830    -6.6800 ce         1 4U6       0.499800
     26 NAD         12.4240     2.1350    -7.1720 nz         1 4U6      -0.778600
     27 NAQ         10.3020     3.0610    -7.3920 n2         1 4U6      -0.350200
     28 OAG         10.6740     3.5440    -8.6700 oh         1 4U6      -0.388500
     29 H1          -0.3610     0.8780     0.5220 hc         1 4U6       0.043922
     30 H2          -0.3610     0.0130    -1.0210 hc         1 4U6       0.043922
     31 H3          -0.3610    -0.8910     0.4990 hc         1 4U6       0.043922
     32 H4           1.4960    -0.7390     2.0180 hc         1 4U6       0.043922
     33 H5           1.8900     0.9800     1.8780 hc         1 4U6       0.043922
     34 H6           3.0960    -0.2420     1.4510 hc         1 4U6       0.043922
     35 H7           1.9070    -1.1300    -1.7890 hc         1 4U6       0.043922
     36 H8           1.4820    -2.1150    -0.3830 hc         1 4U6       0.043922
     37 H9           3.0910    -1.3900    -0.5010 hc         1 4U6       0.043922
     38 H10          4.0080     0.7690    -0.4820 hn         1 4U6       0.323500
     39 H11          3.1780     2.8830    -2.3420 h1         1 4U6       0.103700
     40 H12          4.5650     5.1460    -1.9320 hn         1 4U6       0.314500
     41 H13          4.4390     6.8970    -0.5410 ho         1 4U6       0.400000
     42 H14          5.8560     1.2820    -0.3390 ha         1 4U6       0.148500
     43 H15          8.1170     0.8510    -1.2150 ha         1 4U6       0.135000
     44 H16          4.8610     3.4150    -3.9030 ha         1 4U6       0.148500
     45 H17          7.1180     2.9930    -4.7960 ha         1 4U6       0.135000
     46 H18          8.7730     2.6870    -5.4400 ha         1 4U6       0.164000
     47 H19          9.7700     0.5460    -1.8600 ha         1 4U6       0.164000
     48 H20         12.0280     0.1160    -2.7410 ha         1 4U6       0.161000
     49 H21         12.6720     0.9580    -4.9620 ha         1 4U6       0.107000
     50 H22         12.5150     2.5440    -8.0800 hn         1 4U6       0.472467
     51 H24          9.9490     4.0100    -9.0530 ho         1 4U6       0.489000
     52 H25         13.1040     2.5350    -6.5560 hn         1 4U6       0.472467
     53 HAD3        12.5700     1.1470    -7.2350 hn         1 4U6       0.472467
@<TRIPOS>BOND
     1     6     5 2   
     2    22    21 ar  
     3    22    23 ar  
     4    21    19 ar  
     5    23    24 ar  
     6    15    14 ar  
     7    15    18 ar  
     8     4     2 1   
     9    14    13 ar  
    10    19    18 1   
    11    19    20 ar  
    12    18    17 ar  
    13     5     2 1   
    14     5     7 1   
    15    24    20 ar  
    16    24    25 1   
    17    13     8 1   
    18    13    16 ar  
    19    25    26 1   
    20    25    27 2   
    21     8     7 1   
    22     8     9 1   
    23     2     1 1   
    24     2     3 1   
    25    17    16 ar  
    26    27    28 1   
    27    11     9 1   
    28    11    12 1   
    29     9    10 2   
    30     1    29 1   
    31     1    30 1   
    32     1    31 1   
    33     3    32 1   
    34     3    33 1   
    35     3    34 1   
    36     4    35 1   
    37     4    36 1   
    38     4    37 1   
    39     7    38 1   
    40     8    39 1   
    41    11    40 1   
    42    12    41 1   
    43    14    42 1   
    44    15    43 1   
    45    16    44 1   
    46    17    45 1   
    47    20    46 1   
    48    21    47 1   
    49    22    48 1   
    50    23    49 1   
    51    26    50 1   
    52    28    51 1   
    53    26    52 1   
    54    53    26 1   
@<TRIPOS>SUBSTRUCTURE
     1 4U6         1 TEMP              0 ****  ****    0 ROOT
