@<TRIPOS>MOLECULE
4U6
   53    54     1     0     0
SMALL
bcc


@<TRIPOS>ATOM
      1 CAA          0.0000     0.0000     0.0000 c3         1 4U6       0.012900
      2 CBB          1.5300     0.0000     0.0000 c3         1 4U6      -0.140000
      3 CAB          2.0400     0.0000     1.4420 c3         1 4U6       0.012900
      4 CAC          2.0400    -1.2500    -0.7210 c3         1 4U6       0.012900
      5 CAV          2.0330     1.2300    -0.7110 c          1 4U6       0.597100
      6 OAF          1.2450     2.0290    -1.1720 o          1 4U6      -0.637100
      7 N            3.3580     1.4430    -0.8340 ns         1 4U6      -0.183900
      8 CA           3.8460     2.6400    -1.5250 c3         1 4U6       0.010000
      9 C            3.8960     3.7930    -0.5570 c          1 4U6       0.558100
     10 O            3.5580     3.6330     0.5970 o          1 4U6      -0.594100
     11 NAR          4.3180     5.0040    -0.9720 ns         1 4U6      -0.052400
     12 OAH          4.3660     6.0880    -0.0630 oh         1 4U6      -0.431100
     13 CAZ          5.2280     2.3780    -2.0670 ca         1 4U6      -0.087300
     14 CAO          6.1380     1.6570    -1.3150 ca         1 4U6      -0.084500
     15 CAM          7.4040     1.4140    -1.8060 ca         1 4U6      -0.078000
     16 CAN          5.5790     2.8550    -3.3170 ca         1 4U6      -0.084500
     17 CAL          6.8430     2.6180    -3.8180 ca         1 4U6      -0.078000
     18 CAX          7.7650     1.8970    -3.0620 cp         1 4U6      -0.068000
     19 CAY          9.1260     1.6390    -3.5960 cp         1 4U6       0.005000
     20 CAP          9.4850     2.1220    -4.8500 ca         1 4U6      -0.036000
     21 CAK         10.0480     0.9180    -2.8380 ca         1 4U6      -0.048000
     22 CAI         11.3160     0.6780    -3.3330 ca         1 4U6      -0.060000
     23 CAJ         11.6770     1.1500    -4.5790 ca         1 4U6      -0.116000
     24 CAW         10.7640     1.8770    -5.3450 ca         1 4U6      -0.186900
     25 CAT         11.1540     2.3830    -6.6800 ce         1 4U6       0.226800
     26 NAD         12.4240     2.1350    -7.1720 nz         1 4U6       0.155400
     27 NAQ         10.3020     3.0610    -7.3920 n2         1 4U6      -0.249200
     28 OAG         10.6740     3.5440    -8.6700 oh         1 4U6      -0.377500
     29 H1          -0.3610     0.0250    -1.0210 hc         1 4U6       0.011033
     30 H2          -0.3610    -0.8970     0.4890 hc         1 4U6       0.011033
     31 H3          -0.3610     0.8720     0.5320 hc         1 4U6       0.011033
     32 H4           1.5020    -0.7450     2.0160 hc         1 4U6       0.011033
     33 H5           1.8830     0.9780     1.8810 hc         1 4U6       0.011033
     34 H6           3.0980    -0.2330     1.4500 hc         1 4U6       0.011033
     35 H7           3.0930    -1.3850    -0.5080 hc         1 4U6       0.011033
     36 H8           1.4880    -2.1160    -0.3760 hc         1 4U6       0.011033
     37 H9           1.8990    -1.1330    -1.7890 hc         1 4U6       0.011033
     38 H10          4.0080     0.7700    -0.4790 hn         1 4U6       0.186500
     39 H11          3.1780     2.8830    -2.3420 h1         1 4U6       0.071700
     40 H12          4.5660     5.1450    -1.9320 hn         1 4U6       0.151500
     41 H13          4.4390     6.8970    -0.5410 ho         1 4U6       0.393000
     42 H14          5.8560     1.2820    -0.3390 ha         1 4U6       0.121000
     43 H15          8.1170     0.8510    -1.2150 ha         1 4U6       0.110500
     44 H16          4.8610     3.4150    -3.9030 ha         1 4U6       0.121000
     45 H17          7.1180     2.9930    -4.7960 ha         1 4U6       0.110500
     46 H18          8.7730     2.6870    -5.4400 ha         1 4U6       0.136000
     47 H19          9.7700     0.5460    -1.8600 ha         1 4U6       0.132000
     48 H20         12.0280     0.1160    -2.7410 ha         1 4U6       0.124000
     49 H21         12.6720     0.9580    -4.9620 ha         1 4U6       0.080000
     50 H22         13.1030     2.5410    -6.5600 hn         1 4U6       0.227467
     51 H24          9.9490     4.0100    -9.0530 ho         1 4U6       0.481000
     52 H25         12.5130     2.5380    -8.0830 hn         1 4U6       0.227467
     53 HAD3        12.5730     1.1470    -7.2280 hn         1 4U6       0.227467
@<TRIPOS>BOND
     1     1     2 1   
     2     1    29 1   
     3     1    30 1   
     4     1    31 1   
     5     2     3 1   
     6     2     4 1   
     7     2     5 1   
     8     3    32 1   
     9     3    33 1   
    10     3    34 1   
    11     4    35 1   
    12     4    36 1   
    13     4    37 1   
    14     5     6 2   
    15     5     7 1   
    16     7     8 1   
    17     7    38 1   
    18     8     9 1   
    19     8    13 1   
    20     8    39 1   
    21     9    10 2   
    22     9    11 1   
    23    11    12 1   
    24    11    40 1   
    25    12    41 1   
    26    13    14 ar  
    27    13    16 ar  
    28    14    15 ar  
    29    14    42 1   
    30    15    18 ar  
    31    15    43 1   
    32    16    17 ar  
    33    16    44 1   
    34    17    18 ar  
    35    17    45 1   
    36    18    19 1   
    37    19    20 ar  
    38    19    21 ar  
    39    20    24 ar  
    40    20    46 1   
    41    21    22 ar  
    42    21    47 1   
    43    22    23 ar  
    44    22    48 1   
    45    23    24 ar  
    46    23    49 1   
    47    24    25 1   
    48    25    26 1   
    49    25    27 2   
    50    26    50 1   
    51    26    52 1   
    52    26    53 1   
    53    27    28 1   
    54    28    51 1   
@<TRIPOS>SUBSTRUCTURE
     1 4U6         1 TEMP              0 ****  ****    0 ROOT
