@<TRIPOS>MOLECULE
molecule
   60    63     1     0     0
SMALL
bcc


@<TRIPOS>ATOM
      1 O1           0.0000     0.0000     0.0000 os         1 4U8      -0.339900
      2 C7          11.8450     4.0280    -1.9830 ca         1 4U8      -0.126500
      3 O2           4.5350    -2.5120     1.1720 o          1 4U8      -0.818800
      4 C6          11.5420     5.2460    -2.5660 ca         1 4U8      -0.096300
      5 C1           7.0730     3.0550    -1.4740 ca         1 4U8      -0.128000
      6 N1           5.5300     0.0000     0.0000 na         1 4U8       0.026500
      7 C5          10.2250     5.6280    -2.7380 ca         1 4U8      -0.126500
      8 C4           9.2040     4.7960    -2.3290 ca         1 4U8      -0.132500
      9 C3           9.5020     3.5680    -1.7410 cp         1 4U8       0.003000
     10 C2           8.4070     2.6680    -1.3000 cp         1 4U8      -0.098000
     11 O3           6.6560    -3.1070     1.4520 o          1 4U8      -0.818800
     12 C16          6.3350    -1.0190     0.4770 cc         1 4U8      -0.042300
     13 C15          7.6390    -0.6680     0.3130 cd         1 4U8      -0.208200
     14 C19          4.1280     0.0000     0.0000 ca         1 4U8       0.007800
     15 C24          3.4340     0.0000     1.2020 ca         1 4U8      -0.055000
     16 C23          2.0530    -0.0010     1.2020 ca         1 4U8      -0.192500
     17 C22          1.3600     0.0000     0.0000 ca         1 4U8       0.130100
     18 C25         -0.6490     0.1220     1.2670 c3         1 4U8       0.141100
     19 C27         -2.0460     0.7130     1.0710 c3         1 4U8      -0.105100
     20 C26         -0.7650    -1.2600     1.9150 c3         1 4U8      -0.105100
     21 C21          2.0530     0.0010    -1.2020 ca         1 4U8      -0.192500
     22 C20          3.4340     0.0050    -1.2020 ca         1 4U8      -0.055000
     23 C17          6.3300     1.0070    -0.4890 ca         1 4U8      -0.052200
     24 C18          6.0540     2.2400    -1.0740 ca         1 4U8      -0.134000
     25 C14          7.6700     0.6070    -0.3020 ca         1 4U8      -0.099800
     26 C13          8.7090     1.4480    -0.7160 ca         1 4U8      -0.073000
     27 C8          10.8300     3.1870    -1.5710 ca         1 4U8      -0.132500
     28 C12         13.5080     5.4470    -4.0650 c3         1 4U8      -0.079767
     29 C11         12.0560     7.4310    -3.6190 c3         1 4U8      -0.079767
     30 C10         13.5270     6.5280    -1.8130 c3         1 4U8      -0.079767
     31 H1          12.8790     3.7330    -1.8510 ha         1 4U8       0.123500
     32 H3           6.8480     4.0110    -1.9310 ha         1 4U8       0.116000
     33 H4           9.9940     6.5830    -3.1950 ha         1 4U8       0.123500
     34 H5           8.1720     5.0960    -2.4640 ha         1 4U8       0.134500
     35 H6           8.5000    -1.2640     0.5910 ha         1 4U8       0.162000
     36 H7           3.9750    -0.0010     2.1410 ha         1 4U8       0.143500
     37 H8           1.5120    -0.0010     2.1400 ha         1 4U8       0.129000
     38 H9          -0.0680     0.7740     1.9090 h1         1 4U8       0.045700
     39 H10         -2.5730     0.7150     2.0170 hc         1 4U8       0.042700
     40 H11         -1.9600     1.7280     0.7030 hc         1 4U8       0.042700
     41 H12         -2.5940     0.1140     0.3540 hc         1 4U8       0.042700
     42 H13         -0.0410    -1.3450     2.7160 hc         1 4U8       0.042700
     43 H14         -0.5740    -2.0240     1.1720 hc         1 4U8       0.042700
     44 H15         -1.7640    -1.3880     2.3150 hc         1 4U8       0.042700
     45 H16          1.5110     0.0050    -2.1400 ha         1 4U8       0.129000
     46 H17          3.9760     0.0060    -2.1400 ha         1 4U8       0.143500
     47 H18          5.0260     2.5530    -1.2150 ha         1 4U8       0.122000
     48 H19          9.7410     1.1480    -0.5800 ha         1 4U8       0.123000
     49 H20         11.0680     2.2340    -1.1150 ha         1 4U8       0.134500
     50 H21         14.0860     4.6630    -3.5910 hc         1 4U8       0.033478
     51 H22         14.1790     6.1630    -4.5240 hc         1 4U8       0.033478
     52 H23         12.8670     5.0140    -4.8240 hc         1 4U8       0.033478
     53 H24         12.8560     8.0880    -3.9420 hc         1 4U8       0.033478
     54 H25         11.4200     7.1950    -4.4630 hc         1 4U8       0.033478
     55 H26         11.4710     7.9240    -2.8520 hc         1 4U8       0.033478
     56 H27         12.8980     6.8740    -1.0020 hc         1 4U8       0.033478
     57 H28         14.2210     7.3120    -2.0920 hc         1 4U8       0.033478
     58 H29         14.0800     5.6530    -1.4930 hc         1 4U8       0.033478
     59 C28          5.8580    -2.2770     1.0640 c          1 4U8       0.891800
     60 C9          12.6550     6.1590    -3.0140 c3         1 4U8      -0.018700
@<TRIPOS>BOND
     1    30    60 1   
     2    29    60 1   
     3    28    60 1   
     4    60     4 1   
     5     4     2 ar  
     6     4     7 ar  
     7     2    27 ar  
     8     7     8 ar  
     9    27     9 ar  
    10     8     9 ar  
    11     9    10 1   
    12    10     5 ar  
    13    10    26 ar  
    14     5    24 ar  
    15    26    25 ar  
    16    24    23 ar  
    17    25    23 ar  
    18    25    13 1   
    19    23     6 1   
    20    13    12 2   
    21     6    12 1   
    22     6    14 1   
    23    12    59 1   
    24    22    14 ar  
    25    22    21 ar  
    26    14    15 ar  
    27    21    17 ar  
    28    15    16 ar  
    29    59    11 1   
    30    59     3 1   
    31    17    16 ar  
    32    17     1 1   
    33    18     1 1   
    34    18    20 1   
    35    18    19 1   
    36     2    31 1   
    37     5    32 1   
    38     7    33 1   
    39     8    34 1   
    40    13    35 1   
    41    15    36 1   
    42    16    37 1   
    43    18    38 1   
    44    19    39 1   
    45    19    40 1   
    46    19    41 1   
    47    20    42 1   
    48    20    43 1   
    49    20    44 1   
    50    21    45 1   
    51    22    46 1   
    52    24    47 1   
    53    26    48 1   
    54    27    49 1   
    55    28    50 1   
    56    28    51 1   
    57    28    52 1   
    58    29    53 1   
    59    29    54 1   
    60    29    55 1   
    61    30    56 1   
    62    30    57 1   
    63    30    58 1   
@<TRIPOS>SUBSTRUCTURE
     1 4U8         1 TEMP              0 ****  ****    0 ROOT
