@<TRIPOS>MOLECULE
4U8
   60    64     1     0     0
SMALL
bcc


@<TRIPOS>ATOM
      1 O1          0.1620    0.7780    0.4280 os        1 4U8     -0.227000
      2 C7         11.4720    3.9220   -2.8420 cu        1 4U8     -0.334500
      3 O2          4.7690   -2.3290    1.7580 o         1 4U8     -0.520000
      4 C6         11.8390    5.1430   -3.5670 cx        1 4U8      0.138000
      5 C1          7.1200    2.1980   -2.4810 c2        1 4U8      0.063000
      6 N1          5.6280   -0.2180   -0.1510 n3        1 4U8     -0.081000
      7 C5         10.4330    4.7280   -3.4940 cu        1 4U8     -0.334500
      8 C4          9.2210    4.1410   -3.3110 c2        1 4U8     -0.051000
      9 C3          9.4660    2.9260   -2.5260 c2        1 4U8     -0.279000
     10 C2          8.5060    1.9910   -2.1030 c2        1 4U8      0.053000
     11 O3          6.8710   -2.4240    2.5420 o         1 4U8     -0.520000
     12 C16         6.4820   -1.0640    0.6570 c2        1 4U8     -0.079000
     13 C15         7.7730   -0.9610    0.2110 c2        1 4U8     -0.158000
     14 C19         4.2340   -0.0410    0.0120 c2        1 4U8      0.144000
     15 C24         3.7210    0.3080    1.3840 c3        1 4U8     -0.245000
     16 C23         2.3020    0.5010    1.5170 c1        1 4U8     -0.062000
     17 C22         1.4110    0.0850    0.4210 c3        1 4U8     -0.088000
     18 C25        -0.5630    0.6420    1.6580 c3        1 4U8      0.011000
     19 C27        -1.5120    1.8270    1.7020 c3        1 4U8     -0.222500
     20 C26        -1.3240   -0.6710    1.6760 c3        1 4U8     -0.222500
     21 C21         1.9770    0.1510   -0.9460 c1        1 4U8     -0.003000
     22 C20         3.3690   -0.1170   -1.0500 c2        1 4U8     -0.289000
     23 C17         6.3770    0.3830   -1.1160 c2        1 4U8      0.137000
     24 C18         6.0780    1.4430   -2.0100 c2        1 4U8     -0.272000
     25 C14         7.8060   -0.1390   -1.0470 c3        1 4U8     -0.044000
     26 C13         8.8110    0.8870   -1.3270 c2        1 4U8     -0.281000
     27 C8         10.9040    2.8360   -2.2540 c2        1 4U8     -0.051000
     28 C12        13.8450    6.2330   -2.6170 c3        1 4U8     -0.196667
     29 C11        12.0890    7.5990   -3.7260 c3        1 4U8     -0.196667
     30 C10        11.6490    6.5710   -1.5100 c3        1 4U8     -0.196667
     31 H1         11.3770    2.0390   -1.6880 ha        1 4U8      0.107000
     32 H3          6.8990    3.0440   -3.1570 ha        1 4U8      0.152000
     33 H4         12.3630    5.0290   -4.5460 hc        1 4U8      0.079000
     34 H5          8.2500    4.4820   -3.6590 ha        1 4U8      0.107000
     35 H6          8.6430   -1.4460    0.6500 ha        1 4U8      0.193000
     36 H7          4.2710    1.2010    1.7990 hc        1 4U8      0.213500
     37 H8          3.9690   -0.5580    2.1080 hc        1 4U8      0.213500
     38 H9          0.1520    0.6890    2.5290 h1        1 4U8      0.116000
     39 H10        -2.2040    1.8040    0.8260 hc        1 4U8      0.077333
     40 H11        -0.9330    2.7810    1.6700 hc        1 4U8      0.077333
     41 H12        -2.1090    1.7890    2.6430 hc        1 4U8      0.077333
     42 H13        -1.9560   -0.7650    0.7610 hc        1 4U8      0.077333
     43 H14        -1.9800   -0.7150    2.5770 hc        1 4U8      0.077333
     44 H15        -0.6170   -1.5340    1.7070 hc        1 4U8      0.077333
     45 H16         1.2140   -1.0310    0.6110 h1        1 4U8      0.166000
     46 H17         3.7300   -0.3620   -2.0650 ha        1 4U8      0.155000
     47 H18         5.0330    1.6780   -2.2580 ha        1 4U8      0.157000
     48 H19         7.8880   -0.9010   -1.9010 hc        1 4U8      0.172000
     49 H20         9.8310    0.6950   -0.9780 ha        1 4U8      0.154000
     50 H21        14.3800    6.1260   -3.5910 hc        1 4U8      0.069000
     51 H22        14.0470    5.3270   -1.9960 hc        1 4U8      0.069000
     52 H23        14.2460    7.1300   -2.0870 hc        1 4U8      0.069000
     53 H24        12.4510    8.5250   -3.2190 hc        1 4U8      0.069000
     54 H25        12.6220    7.4950   -4.7020 hc        1 4U8      0.069000
     55 H26        10.9960    7.7010   -3.9250 hc        1 4U8      0.069000
     56 H27        10.5490    6.6790   -1.6670 hc        1 4U8      0.069000
     57 H28        12.0370    7.4810   -0.9930 hc        1 4U8      0.069000
     58 H29        11.8240    5.6790   -0.8610 hc        1 4U8      0.069000
     59 C28         5.9910   -2.0130    1.7530 c2        1 4U8      0.386000
     60 C9         12.3470    6.3830   -2.8460 c3        1 4U8     -0.051000
@<TRIPOS>BOND
     1    1   17 1   
     2    1   18 1   
     3    2    4 1   
     4    2    7 1   
     5    2   27 1   
     6    3   59 1   
     7    4    7 1   
     8    4   33 1   
     9    4   60 1   
    10    5   10 1   
    11    5   24 1   
    12    5   32 1   
    13    6   12 1   
    14    6   14 1   
    15    6   23 1   
    16    7    8 1   
    17    8    9 1   
    18    8   34 1   
    19    9   10 1   
    20    9   27 1   
    21   10   26 1   
    22   11   59 1   
    23   12   13 1   
    24   12   59 1   
    25   13   25 1   
    26   13   35 1   
    27   14   15 1   
    28   14   22 1   
    29   15   16 1   
    30   15   36 1   
    31   15   37 1   
    32   16   17 1   
    33   17   21 1   
    34   17   45 1   
    35   18   19 1   
    36   18   20 1   
    37   18   38 1   
    38   19   39 1   
    39   19   40 1   
    40   19   41 1   
    41   20   42 1   
    42   20   43 1   
    43   20   44 1   
    44   21   22 1   
    45   22   46 1   
    46   23   24 1   
    47   23   25 1   
    48   24   47 1   
    49   25   26 1   
    50   25   48 1   
    51   26   49 1   
    52   27   31 1   
    53   28   50 1   
    54   28   51 1   
    55   28   52 1   
    56   28   60 1   
    57   29   53 1   
    58   29   54 1   
    59   29   55 1   
    60   29   60 1   
    61   30   56 1   
    62   30   57 1   
    63   30   58 1   
    64   30   60 1   
@<TRIPOS>SUBSTRUCTURE
     1 4U8         1 TEMP              0 ****  ****    0 ROOT
