@<TRIPOS>MOLECULE
4U9
   43    46     1     0     0
SMALL
bcc


@<TRIPOS>ATOM
      1 C7         -0.6790    0.0280   -1.2820 cg        1 4U9     -0.190000
      2 C6          0.0400    0.0010   -0.0630 ca        1 4U9      0.528300
      3 C1          2.8650   -0.8380    5.5780 cc        1 4U9      0.459000
      4 N1          2.0850   -1.1620    4.4540 na        1 4U9     -0.284900
      5 C5          0.1230   -0.4760    2.1970 ca        1 4U9      0.407200
      6 C4          1.4680   -0.0390    2.3040 ca        1 4U9     -0.131300
      7 C3          2.9980    0.8740    4.2050 cd        1 4U9      0.351500
      8 C2          2.1560   -0.0820    3.5740 cc        1 4U9     -0.120600
      9 C23         4.2750   -1.9710    7.3040 ca        1 4U9      0.074400
     10 C22         4.3980   -2.8040    8.4220 ca        1 4U9     -0.145000
     11 C21         3.2750   -3.4240    8.9620 ca        1 4U9     -0.084000
     12 C20         2.0200   -3.2290    8.3940 ca        1 4U9     -0.167000
     13 C19         1.8890   -2.3910    7.2720 ca        1 4U9      0.141900
     14 F4          0.6610   -2.2170    6.7270 f         1 4U9     -0.138900
     15 C18         3.0190   -1.7410    6.7180 ca        1 4U9     -0.157500
     16 N2          3.4260    0.3940    5.4390 nd        1 4U9     -0.604000
     17 C17         2.0950    0.4340    1.1440 ca        1 4U9     -0.066000
     18 C16         1.3790    0.4590   -0.0520 ca        1 4U9     -0.219300
     19 N3         -0.5820   -0.4650    1.0590 nb        1 4U9     -0.640000
     20 C8         -1.2860    0.0520   -2.3150 ch        1 4U9     -0.086000
     21 C9         -1.9950    0.0820   -3.5300 ca        1 4U9      0.052000
     22 C15        -3.3350   -0.3400   -3.5730 ca        1 4U9     -0.109500
     23 C14        -4.0380   -0.3100   -4.7740 ca        1 4U9     -0.085000
     24 C12        -3.4080    0.1400   -5.9360 ca        1 4U9     -0.160300
     25 C13        -4.1840    0.1880   -7.2470 c3        1 4U9      0.687200
     26 F3         -5.1730   -0.7580   -7.3610 f         1 4U9     -0.235967
     27 F2         -3.4160    0.0100   -8.3720 f         1 4U9     -0.235967
     28 F1         -4.8330    1.3790   -7.4710 f         1 4U9     -0.235967
     29 C11        -2.0760    0.5600   -5.9050 ca        1 4U9     -0.085000
     30 C10        -1.3700    0.5320   -4.7050 ca        1 4U9     -0.109500
     31 H1          1.5300   -1.9720    4.3420 hn        1 4U9      0.314700
     32 H2         -0.4230   -0.8460    3.0850 h4        1 4U9      0.029100
     33 H3          5.3880   -2.9690    8.8760 ha        1 4U9      0.157000
     34 H4          3.3780   -4.0740    9.8440 ha        1 4U9      0.148000
     35 H5          1.1260   -3.7160    8.8110 ha        1 4U9      0.158000
     36 H7          3.1400    0.7790    1.1740 ha        1 4U9      0.159000
     37 H8          1.8430    0.8280   -0.9770 ha        1 4U9      0.155000
     38 H9         -3.8280   -0.6940   -2.6540 ha        1 4U9      0.152000
     39 H10        -5.0870   -0.6440   -4.8120 ha        1 4U9      0.155500
     40 H11        -1.5880    0.9080   -6.8290 ha        1 4U9      0.155500
     41 H12        -0.3210    0.8630   -4.6780 ha        1 4U9      0.152000
     42 BR1         3.4810    2.5390    3.5810 br        1 4U9     -0.102200
     43 CL1         5.6830   -1.2700    6.6740 cl        1 4U9     -0.043400
@<TRIPOS>BOND
     1    1    2 1   
     2    1   20 3   
     3    2   18 ar  
     4    2   19 ar  
     5    3    4 1   
     6    3   15 1   
     7    3   16 2   
     8    4    8 1   
     9    4   31 1   
    10    5    6 ar  
    11    5   19 ar  
    12    5   32 1   
    13    6    8 1   
    14    6   17 ar  
    15    7    8 2   
    16    7   16 1   
    17    7   42 1   
    18    9   10 ar  
    19    9   15 ar  
    20    9   43 1   
    21   10   11 ar  
    22   10   33 1   
    23   11   12 ar  
    24   11   34 1   
    25   12   13 ar  
    26   12   35 1   
    27   13   14 1   
    28   13   15 ar  
    29   17   18 ar  
    30   17   36 1   
    31   18   37 1   
    32   20   21 1   
    33   21   22 ar  
    34   21   30 ar  
    35   22   23 ar  
    36   22   38 1   
    37   23   24 ar  
    38   23   39 1   
    39   24   25 1   
    40   24   29 ar  
    41   25   26 1   
    42   25   27 1   
    43   25   28 1   
    44   29   30 ar  
    45   29   40 1   
    46   30   41 1   
@<TRIPOS>SUBSTRUCTURE
     1 4U9         1 TEMP              0 ****  ****    0 ROOT
