@<TRIPOS>MOLECULE
molecule
   43    46     1     0     0
SMALL
bcc


@<TRIPOS>ATOM
      1 C7          -0.7090     0.0010    -1.2450 cg         1 4U9      -0.187000
      2 C6           0.0000     0.0000     0.0000 ca         1 4U9       0.556300
      3 C1           2.5700    -0.4680     5.7700 cc         1 4U9       0.417000
      4 N1           1.6870    -0.7900     4.7800 na         1 4U9      -0.307900
      5 C5          -0.0720     0.0050     2.3090 ca         1 4U9       0.438200
      6 C4           1.3240    -0.0010     2.3810 ca         1 4U9      -0.145300
      7 C3           3.0690     0.7640     4.0590 cd         1 4U9       0.488500
      8 C2           2.0040    -0.0060     3.6900 cc         1 4U9      -0.113600
      9 C23          4.3210    -1.8710     7.4620 ca         1 4U9       0.026400
     10 C22          4.4330    -2.5820     8.6400 ca         1 4U9      -0.201000
     11 C21          3.4310    -3.4560     9.0230 ca         1 4U9      -0.092000
     12 C20          2.3100    -3.6240     8.2300 ca         1 4U9      -0.184000
     13 C19          2.1830    -2.9200     7.0480 ca         1 4U9       0.176900
     14 F4           1.0860    -3.0810     6.2770 f          1 4U9      -0.135900
     15 C18          3.1890    -2.0310     6.6570 ca         1 4U9      -0.185500
     16 N2           3.3910     0.4580     5.3180 nd         1 4U9      -0.666000
     17 C17          2.0700     0.0000     1.1930 ca         1 4U9      -0.083000
     18 C16          1.3990     0.0000     0.0000 ca         1 4U9      -0.241300
     19 N3          -0.6820     0.0050     1.1430 nb         1 4U9      -0.657000
     20 C8          -1.2750     0.0140    -2.2720 ch         1 4U9      -0.060000
     21 C9          -2.3150    -0.2660    -3.4180 ca         1 4U9      -0.003000
     22 C15         -2.1550     0.4390    -4.8450 ca         1 4U9      -0.127500
     23 C14         -2.9360     0.3660    -6.0390 ca         1 4U9      -0.068500
     24 C12         -4.1050     0.1340    -5.6490 ca         1 4U9      -0.112300
     25 C13         -5.0230    -0.0020    -6.7570 c3         1 4U9       0.664200
     26 F3          -4.7530    -0.6940    -7.7360 f          1 4U9      -0.235300
     27 F2          -6.4390     0.0210    -6.1580 f          1 4U9      -0.235300
     28 F1          -5.2350     1.3530    -7.2880 f          1 4U9      -0.235300
     29 C11         -4.5490    -0.0240    -4.2690 ca         1 4U9      -0.068500
     30 C10         -3.8510    -0.5080    -3.4510 ca         1 4U9      -0.127500
     31 H1           1.3980    -1.7100     5.0470 hn         1 4U9       0.341700
     32 H2          -0.4940     0.2110     3.2850 h4         1 4U9       0.041100
     33 H3           5.2830    -2.4890     9.3040 ha         1 4U9       0.154000
     34 H4           3.6700    -3.8630     9.9980 ha         1 4U9       0.148000
     35 H5           1.6730    -4.2060     8.8850 ha         1 4U9       0.168000
     36 H7           2.9900    -0.5200     0.9540 ha         1 4U9       0.160000
     37 H8           2.0870     0.2960    -0.7830 ha         1 4U9       0.156000
     38 H9          -1.1850     0.9060    -4.9620 ha         1 4U9       0.135000
     39 H10         -2.4740     0.6700    -6.9710 ha         1 4U9       0.173000
     40 H11         -5.4640    -0.4940    -3.9280 ha         1 4U9       0.173000
     41 H12         -3.8160    -0.6520    -2.3770 ha         1 4U9       0.135000
     42 Br1          4.1630     2.0870     2.5990 br         1 4U9      -0.198200
     43 Cl1          5.4600    -1.1270     6.9820 cl         1 4U9       0.118600
@<TRIPOS>BOND
     1    28    25 1   
     2    27    25 1   
     3    26    25 1   
     4    25    24 1   
     5    24    23 ar  
     6    24    29 ar  
     7    23    22 ar  
     8    29    30 ar  
     9    22    21 ar  
    10    30    21 ar  
    11    21    20 1   
    12    20     1 3   
    13     1     2 1   
    14     2    19 ar  
    15     2    18 ar  
    16    19     5 ar  
    17    18    17 ar  
    18     5     6 ar  
    19    17     6 ar  
    20     6     8 1   
    21     8     4 1   
    22     8     7 2   
    23     4     3 1   
    24    14    13 1   
    25     7    42 1   
    26     7    16 1   
    27     3    15 1   
    28     3    16 2   
    29    13    15 ar  
    30    13    12 ar  
    31    15     9 ar  
    32    12    11 ar  
    33     9    43 1   
    34     9    10 ar  
    35    11    10 ar  
    36     4    31 1   
    37     5    32 1   
    38    10    33 1   
    39    11    34 1   
    40    12    35 1   
    41    17    36 1   
    42    18    37 1   
    43    22    38 1   
    44    23    39 1   
    45    29    40 1   
    46    30    41 1   
@<TRIPOS>SUBSTRUCTURE
     1 4U9         1 TEMP              0 ****  ****    0 ROOT
