@<TRIPOS>MOLECULE
molecule
   72    75     1     0     0
SMALL
bcc


@<TRIPOS>ATOM
      1 C35          0.0000     0.0000     0.0000 ca         1 4UA      -0.128000
      2 C34          1.3830     0.0000     0.0000 ca         1 4UA      -0.122000
      3 C36         -0.6910     0.0020     1.1970 ca         1 4UA      -0.122000
      4 C33          2.0730     0.0000     1.1970 ca         1 4UA      -0.125000
      5 C37          0.0000     0.0030     2.3950 ca         1 4UA      -0.125000
      6 C3           5.7210     7.1270     6.9090 ca         1 4UA      -0.132500
      7 C7           7.4070     5.7130     7.8510 ca         1 4UA      -0.132500
      8 C4           4.7570     6.1880     7.2210 ca         1 4UA      -0.108500
      9 C6           6.4430     4.7730     8.1650 ca         1 4UA      -0.108500
     10 C26          5.3680    -5.0020     6.9880 ca         1 4UA      -0.039000
     11 C27          5.6930    -3.9910     6.1050 ca         1 4UA      -0.235000
     12 C24          3.3190    -5.3820     5.8060 ca         1 4UA       0.005000
     13 C32          1.3830     0.0020     2.3940 ca         1 4UA      -0.075300
     14 C2           7.0450     6.8910     7.2250 ca         1 4UA      -0.073300
     15 C5           5.1180     5.0090     7.8490 ca         1 4UA      -0.126300
     16 C25          4.1820    -5.6970     6.8390 ca         1 4UA      -0.139300
     17 C28          4.8290    -3.6730     5.0680 ca         1 4UA       0.218100
     18 C23          3.6400    -4.3720     4.9200 ca         1 4UA      -0.334500
     19 C10          3.0210     2.0450     7.1510 c          1 4UA       0.787100
     20 C14          1.1460     0.1230     4.8600 c3         1 4UA      -0.090400
     21 C16          3.1060     1.1860     3.7290 c3         1 4UA      -0.090400
     22 C13          1.9120     0.0870     6.1860 c3         1 4UA       0.111000
     23 C17          3.8950     1.1630     5.0410 c3         1 4UA       0.111000
     24 C15          2.1360     0.0020     3.7000 c3         1 4UA      -0.022700
     25 C18          2.9220    -1.3040     3.8340 c3         1 4UA       0.244800
     26 N12          2.9460     1.1320     6.1630 n          1 4UA      -0.511800
     27 N9           3.9120     3.0530     7.0700 ns         1 4UA      -0.606900
     28 N19          1.9890    -2.4330     3.8750 n7         1 4UA      -0.908100
     29 O11          2.2860     1.9600     8.1150 o          1 4UA      -0.659100
     30 O29          5.1460    -2.6770     4.1990 os         1 4UA      -0.331900
     31 S20          2.5390    -3.9710     3.6030 sy         1 4UA       1.433200
     32 H35         -0.5420    -0.0000    -0.9380 ha         1 4UA       0.130000
     33 H34          1.9250    -0.0010    -0.9380 ha         1 4UA       0.131000
     34 H36         -1.7740     0.0020     1.1970 ha         1 4UA       0.131000
     35 H33          3.1570    -0.0000     1.1970 ha         1 4UA       0.131500
     36 H37         -0.5420     0.0040     3.3330 ha         1 4UA       0.131500
     37 H3           5.4380     8.0500     6.4180 ha         1 4UA       0.132500
     38 H4           3.7190     6.3730     6.9730 ha         1 4UA       0.135000
     39 H7           8.4450     5.5270     8.0990 ha         1 4UA       0.132500
     40 H6           6.7260     3.8500     8.6560 ha         1 4UA       0.135000
     41 H26          6.0430    -5.2500     7.7980 ha         1 4UA       0.135000
     42 H27          6.6220    -3.4470     6.2230 ha         1 4UA       0.138000
     43 H24          2.3910    -5.9280     5.6910 ha         1 4UA       0.163000
     44 H11C         8.9220     7.8310     7.5790 hc         1 4UA       0.045033
     45 H12C         7.6680     8.9090     6.9510 hc         1 4UA       0.045033
     46 H13C         8.4530     7.7440     5.8760 hc         1 4UA       0.045033
     47 H81C         3.1250     4.4840     8.3790 h1         1 4UA       0.058700
     48 H82C         4.3710     3.4380     9.0750 h1         1 4UA       0.058700
     49 H311         3.5460    -7.6870     7.2490 hc         1 4UA       0.045033
     50 H312         4.6900    -7.0240     8.4240 hc         1 4UA       0.045033
     51 H313         3.0050    -6.4840     8.4290 hc         1 4UA       0.045033
     52 H9           4.4460     3.1830     6.2340 hn         1 4UA       0.314500
     53 H141         0.6100     1.0610     4.7790 hc         1 4UA       0.057200
     54 H142         0.4470    -0.7030     4.8250 hc         1 4UA       0.057200
     55 H131         2.3790    -0.8820     6.3080 h1         1 4UA       0.055700
     56 H132         1.2280     0.2730     7.0050 h1         1 4UA       0.055700
     57 H161         3.7930     1.1090     2.8940 hc         1 4UA       0.057200
     58 H162         2.5470     2.1110     3.6600 hc         1 4UA       0.057200
     59 H171         4.5210     0.2790     5.0720 h1         1 4UA       0.055700
     60 H172         4.5080     2.0530     5.1100 h1         1 4UA       0.055700
     61 H181         3.5030    -1.2830     4.7480 h1         1 4UA       0.057700
     62 H182         3.5860    -1.4150     2.9860 h1         1 4UA       0.057700
     63 H301         7.2030    -2.7050     4.3230 h1         1 4UA       0.046367
     64 H302         6.3930    -1.5640     5.4040 h1         1 4UA       0.046367
     65 H303         6.5020    -1.2170     3.6730 h1         1 4UA       0.046367
     66 H19          1.0240    -2.2770     4.0920 hn         1 4UA       0.455800
     67 C31          3.8310    -6.8010     7.8030 c3         1 4UA      -0.042800
     68 O21          3.3290    -3.9130     2.4240 o          1 4UA      -0.634300
     69 C8           4.0680     3.9850     8.1900 c3         1 4UA       0.178300
     70 O22          1.4150    -4.8300     3.7440 o          1 4UA      -0.634300
     71 C1           8.0960     7.9160     6.8840 c3         1 4UA      -0.049800
     72 C30          6.3860    -2.0000     4.4120 c3         1 4UA       0.128700
@<TRIPOS>BOND
     1     1     2 ar  
     2     1     3 ar  
     3     2     4 ar  
     4     3     5 ar  
     5     4    13 ar  
     6     5    13 ar  
     7     6     8 ar  
     8     6    14 ar  
     9     7     9 ar  
    10     7    14 ar  
    11     8    15 ar  
    12     9    15 ar  
    13    10    11 ar  
    14    10    16 ar  
    15    11    17 ar  
    16    12    16 ar  
    17    12    18 ar  
    18    13    24 1   
    19    14    71 1   
    20    15    69 1   
    21    16    67 1   
    22    17    18 ar  
    23    17    30 1   
    24    18    31 1   
    25    19    26 1   
    26    19    27 1   
    27    19    29 2   
    28    20    22 1   
    29    20    24 1   
    30    21    23 1   
    31    21    24 1   
    32    22    26 1   
    33    23    26 1   
    34    24    25 1   
    35    72    30 1   
    36    69    27 1   
    37    25    28 1   
    38    28    31 1   
    39    68    31 2   
    40    70    31 2   
    41     1    32 1   
    42     2    33 1   
    43     3    34 1   
    44     4    35 1   
    45     5    36 1   
    46     6    37 1   
    47     8    38 1   
    48     7    39 1   
    49     9    40 1   
    50    10    41 1   
    51    11    42 1   
    52    12    43 1   
    53    71    44 1   
    54    71    45 1   
    55    71    46 1   
    56    69    47 1   
    57    69    48 1   
    58    67    49 1   
    59    67    50 1   
    60    67    51 1   
    61    27    52 1   
    62    20    53 1   
    63    20    54 1   
    64    22    55 1   
    65    22    56 1   
    66    21    57 1   
    67    21    58 1   
    68    23    59 1   
    69    23    60 1   
    70    25    61 1   
    71    25    62 1   
    72    72    63 1   
    73    72    64 1   
    74    72    65 1   
    75    28    66 1   
@<TRIPOS>SUBSTRUCTURE
     1 4UA         1 TEMP              0 ****  ****    0 ROOT
