@<TRIPOS>MOLECULE
molecule
   31    34     1     0     0
SMALL
bcc


@<TRIPOS>ATOM
      1 C1           0.0000     0.0000     0.0000 ca         1 4UB      -0.126000
      2 C2           1.3800     0.0000     0.0000 ca         1 4UB      -0.120000
      3 C3           2.0740     0.0000     1.1960 ca         1 4UB      -0.128000
      4 C4           1.3920     0.0010     2.4010 ca         1 4UB      -0.120000
      5 C5           0.0120     0.0010     2.4150 ca         1 4UB      -0.126000
      6 C8          -2.2640     2.0000     6.2300 cc         1 4UB       0.347200
      7 N9          -2.4450     2.4800     7.4330 nd         1 4UB      -0.506800
      8 N10         -3.8210     2.5750     7.6710 na         1 4UB      -0.039600
      9 C12         -4.4710     2.1390     6.5740 cd         1 4UB      -0.062300
     10 C13         -3.5300     1.7720     5.6560 cc         1 4UB      -0.372800
     11 C14         -3.7930     1.2320     4.2990 cc         1 4UB       0.491800
     12 C15         -2.7460     0.9080     3.4910 cd         1 4UB      -0.217600
     13 C17         -4.2820     0.2430     1.8210 cc         1 4UB      -0.165600
     14 N18         -4.2610    -0.2470     0.5900 nd         1 4UB      -0.294600
     15 C19         -3.0020    -0.4000     0.1920 cd         1 4UB       0.053600
     16 C20         -2.1720     0.0010     1.2190 cc         1 4UB      -0.141300
     17 CAO         -0.6940     0.0000     1.2110 ca         1 4UB      -0.009800
     18 NAT         -2.9850     0.4100     2.2430 na         1 4UB       0.079700
     19 C22         -5.3300     0.5870     2.6970 cd         1 4UB       0.493200
     20 N23         -5.0590     1.0620     3.8870 nc         1 4UB      -0.691000
     21 H1          -0.5430    -0.0000    -0.9370 ha         1 4UB       0.133500
     22 H2           1.9200    -0.0010    -0.9390 ha         1 4UB       0.133000
     23 H3           3.1580     0.0000     1.1900 ha         1 4UB       0.132000
     24 H4           1.9430     0.0010     3.3340 ha         1 4UB       0.133000
     25 H5          -0.5210     0.0010     3.3580 ha         1 4UB       0.133500
     26 H10         -4.2480     2.9110     8.5120 hn         1 4UB       0.335700
     27 H12         -5.5450     2.0870     6.4440 h4         1 4UB       0.191000
     28 H15         -1.7340     1.1500     3.7920 h4         1 4UB       0.174000
     29 H22         -6.3600     0.4580     2.3860 h4         1 4UB       0.053100
     30 H19         -2.6820    -0.7770    -0.7720 h4         1 4UB       0.189000
     31 H8          -1.3080     1.8110     5.7570 h4         1 4UB       0.048100
@<TRIPOS>BOND
     1     1     2 ar  
     2     1    17 ar  
     3     2     3 ar  
     4     3     4 ar  
     5     4     5 ar  
     6     5    17 ar  
     7     6     7 2   
     8     6    10 1   
     9     7     8 1   
    10     8     9 1   
    11     9    10 2   
    12    10    11 1   
    13    11    12 2   
    14    11    20 1   
    15    12    18 1   
    16    13    14 2   
    17    13    19 1   
    18    13    18 1   
    19    14    15 1   
    20    15    16 2   
    21    16    17 1   
    22    16    18 1   
    23    19    20 2   
    24     1    21 1   
    25     2    22 1   
    26     3    23 1   
    27     4    24 1   
    28     5    25 1   
    29     6    31 1   
    30     8    26 1   
    31     9    27 1   
    32    12    28 1   
    33    19    29 1   
    34    15    30 1   
@<TRIPOS>SUBSTRUCTURE
     1 4UB         1 TEMP              0 ****  ****    0 ROOT
