@<TRIPOS>MOLECULE
4UB
   31    34     1     0     0
SMALL
bcc


@<TRIPOS>ATOM
      1 C1          0.0100    0.3110    0.0540 ca        1 4UB     -0.120000
      2 C2          1.4020    0.3230    0.0220 ca        1 4UB     -0.126500
      3 C3          2.1340   -0.0130    1.1610 ca        1 4UB     -0.124000
      4 C4          1.4680   -0.3680    2.3340 ca        1 4UB     -0.126500
      5 C5          0.0750   -0.3850    2.3740 ca        1 4UB     -0.120000
      6 C8         -2.3230    2.2230    6.2010 cc        1 4UB      0.310200
      7 N9         -2.5340    2.7550    7.4310 nd        1 4UB     -0.513800
      8 N10        -3.8530    2.7390    7.6390 na        1 4UB     -0.020600
      9 C12        -4.5580    2.2020    6.5650 cd        1 4UB     -0.088300
     10 C13        -3.5910    1.8500    5.6000 cc        1 4UB     -0.323800
     11 C14        -3.8210    1.2540    4.3070 cc        1 4UB      0.465800
     12 C15        -2.7290    0.9250    3.4990 cd        1 4UB     -0.187600
     13 C17        -4.2960    0.1260    1.8230 cc        1 4UB     -0.170600
     14 N18        -4.3080   -0.4160    0.5690 nd        1 4UB     -0.256600
     15 C19        -2.9860   -0.5340    0.2050 cd        1 4UB      0.022600
     16 C20        -2.1110   -0.0700    1.2340 cc        1 4UB     -0.113300
     17 CAO        -0.6650   -0.0410    1.2340 ca        1 4UB     -0.020800
     18 NAT        -2.9490    0.3530    2.2670 na        1 4UB      0.045700
     19 C22        -5.3580    0.4950    2.7330 cd        1 4UB      0.467200
     20 N23        -5.1410    1.0280    3.9130 nc        1 4UB     -0.659000
     21 H1         -0.5680    0.5790   -0.8430 ha        1 4UB      0.137500
     22 H2          1.9250    0.6010   -0.9050 ha        1 4UB      0.135500
     23 H3          3.2330   -0.0010    1.1340 ha        1 4UB      0.135000
     24 H4          2.0430   -0.6410    3.2320 ha        1 4UB      0.135500
     25 H5         -0.4410   -0.6890    3.2960 ha        1 4UB      0.137500
     26 H10        -4.2290    3.0890    8.4890 hn        1 4UB      0.325700
     27 H12        -5.6440    2.1070    6.5490 h4        1 4UB      0.195000
     28 H15        -1.6830    1.1080    3.7940 h4        1 4UB      0.178000
     29 H22        -6.4040    0.3220    2.4190 h4        1 4UB      0.052100
     30 H19        -2.6890   -0.9480   -0.7600 h4        1 4UB      0.186000
     31 H8         -1.3240    2.1210    5.7790 h4        1 4UB      0.043100
@<TRIPOS>BOND
     1    1    2 ar  
     2    1   17 ar  
     3    1   21 1   
     4    2    3 ar  
     5    2   22 1   
     6    3    4 ar  
     7    3   23 1   
     8    4    5 ar  
     9    4   24 1   
    10    5   17 ar  
    11    5   25 1   
    12    6    7 2   
    13    6   10 1   
    14    6   31 1   
    15    7    8 1   
    16    8    9 1   
    17    8   26 1   
    18    9   10 2   
    19    9   27 1   
    20   10   11 1   
    21   11   12 2   
    22   11   20 1   
    23   12   18 1   
    24   12   28 1   
    25   13   14 2   
    26   13   18 1   
    27   13   19 1   
    28   14   15 1   
    29   15   16 2   
    30   15   30 1   
    31   16   17 1   
    32   16   18 1   
    33   19   20 2   
    34   19   29 1   
@<TRIPOS>SUBSTRUCTURE
     1 4UB         1 TEMP              0 ****  ****    0 ROOT
