@<TRIPOS>MOLECULE
molecule
   58    61     1     0     0
SMALL
bcc


@<TRIPOS>ATOM
      1 C6           0.0000     0.0000     0.0000 ca         1 4UC      -0.333500
      2 C7           1.3820     0.0000     0.0000 ca         1 4UC       0.000000
      3 C8           2.0750     0.0000     1.1960 ca         1 4UC      -0.173500
      4 C13          5.3640     1.1860     5.0630 ca         1 4UC      -0.121300
      5 C15          7.1630     2.4550     4.1380 ca         1 4UC      -0.126000
      6 C17          7.3470     1.6580     6.3920 ca         1 4UC      -0.170300
      7 C20          4.3550    -0.1740     7.2280 cp         1 4UC       0.499800
      8 C21          3.8330    -0.9010     8.4090 cp         1 4UC      -0.198500
      9 C22          2.5820    -1.5160     8.3550 ca         1 4UC      -0.060500
     10 C24          2.8570    -2.2590    10.6170 ca         1 4UC       0.160100
     11 C26          1.0880    -3.5250    11.5750 c3         1 4UC       0.134400
     12 C28          4.1050    -1.6530    10.6720 ca         1 4UC      -0.198000
     13 C27          0.7190    -4.2230    12.8860 c3         1 4UC      -0.093100
     14 O25          2.3780    -2.9250    11.7010 os         1 4UC      -0.326900
     15 C29          4.5940    -0.9770     9.5750 ca         1 4UC      -0.060500
     16 C23          2.0990    -2.1920     9.4560 ca         1 4UC      -0.198000
     17 C30          3.5650    -0.1090     6.0690 ca         1 4UC      -0.217300
     18 N19          5.5410     0.3920     7.3030 nb         1 4UC      -0.671000
     19 C18          6.0770     1.0630     6.2820 ca         1 4UC       0.422600
     20 C16          7.8680     2.3380     5.3330 ca         1 4UC      -0.114000
     21 C14          5.9300     1.8910     3.9950 ca         1 4UC      -0.110000
     22 C12          4.0420     0.5700     4.9570 ca         1 4UC      -0.100600
     23 C11          3.2460     0.6660     3.7150 c          1 4UC       0.682700
     24 O31          3.6430     1.3450     2.7890 o          1 4UC      -0.583100
     25 C9           1.3800     0.0000     2.3980 ca         1 4UC       0.114600
     26 C32         -0.0080     0.0010     2.3940 ca         1 4UC      -0.173500
     27 C33         -0.6950     0.0010     1.1960 ca         1 4UC       0.000000
     28 S3          -0.8790     0.0080    -1.5270 sy         1 4UC       1.415900
     29 O4          -2.1620     0.5520    -1.2490 o          1 4UC      -0.617800
     30 O5           0.0040     0.5550    -2.4960 o          1 4UC      -0.617800
     31 N2          -1.1250    -1.5720    -1.9590 ns         1 4UC      -0.658300
     32 C1          -1.9060    -2.3650    -1.1990 c          1 4UC       0.681100
     33 O34         -2.4300    -1.9210    -0.2000 o          1 4UC      -0.570100
     34 C35         -2.1290    -3.8030    -1.5920 c3         1 4UC      -0.173100
     35 H1           1.9240    -0.0000    -0.9380 ha         1 4UC       0.162000
     36 H2           3.1580    -0.0000     1.1950 ha         1 4UC       0.150500
     37 H3           7.6000     3.0020     3.3110 ha         1 4UC       0.136000
     38 H4           7.9090     1.5760     7.3140 ha         1 4UC       0.149000
     39 H5           1.9910    -1.4640     7.4480 ha         1 4UC       0.142500
     40 H6           1.0810    -4.2470    10.7680 h1         1 4UC       0.034700
     41 H7           0.3660    -2.7440    11.3670 h1         1 4UC       0.034700
     42 H8           4.6950    -1.7130    11.5790 ha         1 4UC       0.143000
     43 H9           0.7030    -3.4970    13.6900 hc         1 4UC       0.049033
     44 H10          1.4540    -4.9890    13.1060 hc         1 4UC       0.049033
     45 H11         -0.2590    -4.6780    12.7900 hc         1 4UC       0.049033
     46 H12          5.5680    -0.5040     9.6190 ha         1 4UC       0.142500
     47 H13          1.1270    -2.6680     9.4150 ha         1 4UC       0.143000
     48 H14          2.5390    -0.4550     6.0940 ha         1 4UC       0.134000
     49 H15          8.8460     2.7950     5.4220 ha         1 4UC       0.134000
     50 H16          5.3910     1.9890     3.0610 ha         1 4UC       0.184000
     51 H17          1.7190    -0.5060     4.3950 hn         1 4UC       0.330500
     52 H18         -0.5530     0.0010     3.3310 ha         1 4UC       0.150500
     53 H19         -1.7780     0.0010     1.1920 ha         1 4UC       0.162000
     54 H20         -0.7220    -1.9290    -2.8030 hn         1 4UC       0.346500
     55 H21         -2.7760    -4.2800    -0.8660 hc         1 4UC       0.067700
     56 H22         -1.1780    -4.3200    -1.6230 hc         1 4UC       0.067700
     57 H23         -2.5930    -3.8410    -2.5700 hc         1 4UC       0.067700
     58 N10          2.0780     0.0020     3.6100 ns         1 4UC      -0.477100
@<TRIPOS>BOND
     1    33    32 2   
     2    34    32 1   
     3    32    31 1   
     4    29    28 2   
     5    31    28 1   
     6    28    30 2   
     7    28     1 1   
     8     1     2 ar  
     9     1    27 ar  
    10     2     3 ar  
    11    27    26 ar  
    12     3    25 ar  
    13    26    25 ar  
    14    25    58 1   
    15    58    23 1   
    16    16     9 ar  
    17    16    10 ar  
    18     9     8 ar  
    19    14    10 1   
    20    14    11 1   
    21    23    24 2   
    22    23    22 1   
    23    13    11 1   
    24    10    12 ar  
    25    17    22 ar  
    26    17     7 ar  
    27    22     4 ar  
    28     8     7 1   
    29     8    15 ar  
    30     7    18 ar  
    31    12    15 ar  
    32     4    21 ar  
    33     4    19 ar  
    34    18    19 ar  
    35    21     5 ar  
    36    19     6 ar  
    37     5    20 ar  
    38     6    20 ar  
    39     2    35 1   
    40     3    36 1   
    41     5    37 1   
    42     6    38 1   
    43     9    39 1   
    44    11    40 1   
    45    11    41 1   
    46    12    42 1   
    47    13    43 1   
    48    13    44 1   
    49    13    45 1   
    50    15    46 1   
    51    16    47 1   
    52    17    48 1   
    53    20    49 1   
    54    21    50 1   
    55    58    51 1   
    56    26    52 1   
    57    27    53 1   
    58    31    54 1   
    59    34    55 1   
    60    34    56 1   
    61    34    57 1   
@<TRIPOS>SUBSTRUCTURE
     1 4UC         1 TEMP              0 ****  ****    0 ROOT
