@<TRIPOS>MOLECULE
molecule
   35    37     1     0     0
SMALL
bcc


@<TRIPOS>ATOM
      1 C1           0.0000     0.0000     0.0000 ca         1 4UE      -0.029000
      2 C2           1.4020     0.0000     0.0000 ca         1 4UE      -0.080000
      3 C3           2.0970     0.0000     1.1730 ca         1 4UE      -0.141000
      4 C5           0.0100     0.0000     2.4070 ca         1 4UE      -0.118800
      5 N7           1.8460    -0.0000     3.6990 na         1 4UE      -0.158400
      6 C9          -0.3870     0.0000     3.7650 cc         1 4UE      -0.104200
      7 C14          3.3450    -0.0010     8.6420 c3         1 4UE      -0.097100
      8 C15         -0.2550    -0.3810    -2.4990 cd         1 4UE       0.327200
      9 C16         -0.7370    -0.0060    -1.2830 cc         1 4UE      -0.182600
     10 C18         -2.3120     0.2050    -2.7960 cc         1 4UE       0.399400
     11 O11         -0.2630    -0.0010     6.6280 o          1 4UE      -0.535000
     12 O12          1.9580    -0.0010     6.6410 os         1 4UE      -0.440900
     13 C13          1.9180    -0.0010     8.0920 c3         1 4UE       0.149400
     14 C8           0.7390    -0.0000     4.5270 cd         1 4UE      -0.112300
     15 C6           1.4200    -0.0000     2.3910 ca         1 4UE      -0.026200
     16 C4          -0.6970     0.0010     1.2000 ca         1 4UE      -0.083000
     17 N17         -2.0470     0.3660    -1.4810 na         1 4UE      -0.183900
     18 N19         -1.2380    -0.2340    -3.3950 nd         1 4UE      -0.696000
     19 H1           1.9380     0.0050    -0.9410 ha         1 4UE       0.141000
     20 H2           3.1800     0.0000     1.1570 ha         1 4UE       0.132000
     21 H3           2.8000    -0.0010     4.0010 hn         1 4UE       0.312700
     22 H4          -1.4070     0.0000     4.1320 ha         1 4UE       0.170000
     23 H5           3.8660     0.8830     8.2950 hc         1 4UE       0.048700
     24 H6           3.8650    -0.8860     8.2960 hc         1 4UE       0.048700
     25 H7           3.3150    -0.0000     9.7250 hc         1 4UE       0.048700
     26 H8           0.7500    -0.7300    -2.7060 h4         1 4UE       0.042100
     27 H9          -3.2600     0.4130    -3.2780 h5         1 4UE       0.064100
     28 H10         -2.4970     1.5890     0.1560 h1         1 4UE       0.056367
     29 H11         -3.2900     0.0070     0.1640 h1         1 4UE       0.056367
     30 H12         -3.8520     1.2730    -0.9360 h1         1 4UE       0.056367
     31 H13          1.3970    -0.8850     8.4390 h1         1 4UE       0.051700
     32 H14          1.3980     0.8840     8.4390 h1         1 4UE       0.051700
     33 H15         -1.7800     0.0010     1.2020 ha         1 4UE       0.136000
     34 C10          0.7750    -0.0000     5.9950 c          1 4UE       0.668300
     35 C20         -2.9820     0.8400    -0.4570 c3         1 4UE       0.027600
@<TRIPOS>BOND
     1    35    17 1   
     2    10    17 1   
     3    10    18 2   
     4    17     9 1   
     5    18     8 1   
     6     9     8 2   
     7     9     1 1   
     8     2     1 ar  
     9     2     3 ar  
    10     1    16 ar  
    11     3    15 ar  
    12    16     4 ar  
    13    15     4 ar  
    14    15     5 1   
    15     4     6 1   
    16     5    14 1   
    17     6    14 2   
    18    14    34 1   
    19    34    12 1   
    20    34    11 2   
    21    12    13 1   
    22    13     7 1   
    23     2    19 1   
    24     3    20 1   
    25     5    21 1   
    26     6    22 1   
    27     7    23 1   
    28     7    24 1   
    29     7    25 1   
    30     8    26 1   
    31    10    27 1   
    32    35    28 1   
    33    35    29 1   
    34    35    30 1   
    35    13    31 1   
    36    13    32 1   
    37    16    33 1   
@<TRIPOS>SUBSTRUCTURE
     1 4UE         1 TEMP              0 ****  ****    0 ROOT
