@<TRIPOS>MOLECULE
4UE
   35    34     1     0     0
SMALL
bcc


@<TRIPOS>ATOM
      1 C1         -0.3930   -0.1190    0.2900 c2        1 4UE      0.057000
      2 C2          0.8600   -0.8730    0.2210 c2        1 4UE     -0.027000
      3 C3          1.4000   -1.5090    1.2220 c1        1 4UE     -0.225000
      4 C5         -1.4520    0.5590    2.5800 c2        1 4UE     -0.153000
      5 N7          3.0290   -1.7620    2.9900 n3        1 4UE     -0.181000
      6 C9          3.5620   -3.4080    4.6760 c1        1 4UE      0.371000
      7 C14         1.3990    1.9970    7.7270 c2        1 4UE     -0.231000
      8 C15        -0.7830   -0.2900   -2.2460 c2        1 4UE      0.022000
      9 C16        -0.9990    0.2250   -0.9790 c2        1 4UE     -0.257000
     10 C18        -2.4000    1.1860   -2.6500 c1        1 4UE     -0.056000
     11 O11         2.1990   -1.7390    6.5940 o         1 4UE     -0.362000
     12 O12         2.1200   -0.1190    5.0840 oh        1 4UE     -0.314000
     13 C13         0.7430    0.8940    8.0640 c2        1 4UE     -0.231000
     14 C8          2.9970   -2.2280    4.3400 c2        1 4UE     -0.349000
     15 C6          1.9640   -2.2110    2.1760 c2        1 4UE     -0.009000
     16 C4         -0.9380    0.2280    1.4390 c1        1 4UE     -0.182000
     17 N17        -2.0740    1.2400   -1.1040 n4        1 4UE     -0.039000
     18 N19        -1.6220    0.2990   -3.2170 n2        1 4UE     -0.291000
     19 H1          1.6790   -3.2710    2.3390 h4        1 4UE      0.160000
     20 H2          1.3540   -0.8820   -0.7700 ha        1 4UE      0.144000
     21 H3          3.1550   -0.7650    2.9650 hn        1 4UE      0.207000
     22 H4         -1.2040    1.5040    3.0880 ha        1 4UE      0.135500
     23 H5          2.4620    1.9950    7.4510 ha        1 4UE      0.116750
     24 H6          1.2170   -0.1010    8.0830 ha        1 4UE      0.116750
     25 H7          0.9270    2.9890    7.7140 ha        1 4UE      0.116750
     26 H8         -0.0710   -1.0700   -2.5360 h4        1 4UE      0.180000
     27 H9         -2.8940    0.9480   -0.5770 hn        1 4UE      0.227000
     28 H10        -1.3850    2.6090    0.3750 hx        1 4UE      0.113000
     29 H11        -2.5230    3.2910   -0.9020 hx        1 4UE      0.113000
     30 H12        -0.7880    2.9090   -1.3300 hx        1 4UE      0.113000
     31 H13        -0.3170    0.9010    8.3520 ha        1 4UE      0.116750
     32 H14         1.7520    0.3450    5.8610 ho        1 4UE      0.262000
     33 H15        -2.1640   -0.0900    3.1150 ha        1 4UE      0.135500
     34 C10         2.4200   -1.4020    5.4260 c2        1 4UE      0.346000
     35 C20        -1.6680    2.5910   -0.7110 c3        1 4UE     -0.143000
@<TRIPOS>BOND
     1    1    2 1   
     2    1    9 1   
     3    1   16 1   
     4    2    3 1   
     5    2   20 1   
     6    3   15 1   
     7    4   16 1   
     8    4   22 1   
     9    4   33 1   
    10    5   14 1   
    11    5   15 1   
    12    5   21 1   
    13    6   14 1   
    14    7   13 1   
    15    7   23 1   
    16    7   25 1   
    17    8    9 1   
    18    8   18 1   
    19    8   26 1   
    20    9   17 1   
    21   10   17 1   
    22   10   18 1   
    23   11   34 1   
    24   12   32 1   
    25   12   34 1   
    26   13   24 1   
    27   13   31 1   
    28   14   34 1   
    29   15   19 1   
    30   17   27 1   
    31   17   35 1   
    32   28   35 1   
    33   29   35 1   
    34   30   35 1   
@<TRIPOS>SUBSTRUCTURE
     1 4UE         1 TEMP              0 ****  ****    0 ROOT
