@<TRIPOS>MOLECULE
molecule
   54    57     1     0     0
SMALL
bcc


@<TRIPOS>ATOM
      1 C1           0.0000     0.0000     0.0000 ca         1 4UF      -0.082000
      2 C2           1.3880     0.0000     0.0000 ca         1 4UF      -0.031000
      3 C3           2.0920     0.0000     1.2110 ca         1 4UF      -0.072000
      4 C4           1.4270    -0.0010     2.4020 ca         1 4UF      -0.148000
      5 C5          -0.6880     0.0010     1.2180 ca         1 4UF      -0.121800
      6 C6           0.0350    -0.0010     2.4290 ca         1 4UF      -0.025200
      7 C8          -2.1540     0.0020     2.9130 cc         1 4UF      -0.118300
      8 C9          -2.0630     0.0050     1.5570 cd         1 4UF      -0.099200
      9 C10         -3.4060     0.0050     3.6820 c          1 4UF       0.668300
     10 C13         -4.6450     0.0040     5.7240 c3         1 4UF       0.149400
     11 C14         -4.4040    -0.0000     7.2340 c3         1 4UF      -0.097100
     12 C15          2.1260     0.0010    -1.2830 cc         1 4UF      -0.104300
     13 C18          3.6640    -0.2130    -2.8570 cd         1 4UF       0.265800
     14 C19          3.4190    -0.3980    -1.4790 cd         1 4UF      -0.241300
     15 C21          4.9270    -0.5020    -3.5680 c          1 4UF       0.596600
     16 O23          5.8810    -0.9440    -2.9580 o          1 4UF      -0.625100
     17 O33          5.3050    -0.1220   -11.9580 o          1 4UF      -0.834800
     18 O32          5.9760     1.9660   -11.6150 o          1 4UF      -0.834800
     19 C28          5.8360     0.3950    -9.7430 ca         1 4UF      -0.090600
     20 C27          5.5380    -0.8900    -9.2850 ca         1 4UF      -0.106000
     21 C26          5.6790    -1.1920    -7.9470 ca         1 4UF      -0.142000
     22 C29          6.2810     1.3650    -8.8430 ca         1 4UF      -0.106000
     23 C30          6.4230     1.0490    -7.5080 ca         1 4UF      -0.142000
     24 C25          6.1150    -0.2240    -7.0590 ca         1 4UF      -0.155300
     25 C24          6.2730    -0.5620    -5.5990 c3         1 4UF       0.166300
     26 N22          5.0210    -0.2750    -4.8930 ns         1 4UF      -0.558900
     27 N17          2.5550     0.2580    -3.3940 nc         1 4UF      -0.502800
     28 N16          1.6460     0.3940    -2.4980 na         1 4UF       0.146400
     29 N7          -0.8830    -0.0010     3.4530 na         1 4UF      -0.160400
     30 O12         -4.4750     0.0110     3.1020 o          1 4UF      -0.537000
     31 O11         -3.3700     0.0010     5.0300 os         1 4UF      -0.440900
     32 H1          -0.5460    -0.0000    -0.9360 ha         1 4UF       0.140000
     33 H2           3.1750     0.0000     1.2020 ha         1 4UF       0.149000
     34 H3           1.9840    -0.0010     3.3310 ha         1 4UF       0.130000
     35 H4          -2.8900    -0.0810     0.8630 ha         1 4UF       0.170000
     36 H5          -5.2150    -0.8740     5.4470 h1         1 4UF       0.051200
     37 H6          -5.1980     0.8950     5.4490 h1         1 4UF       0.051200
     38 H7          -3.8390     0.8810     7.5120 hc         1 4UF       0.047033
     39 H8          -3.8460    -0.8880     7.5070 hc         1 4UF       0.047033
     40 H9          -5.3550     0.0020     7.7520 hc         1 4UF       0.047033
     41 H10          4.0070    -1.0090    -0.8040 ha         1 4UF       0.174000
     42 H11          0.0480     1.6500    -2.0010 h1         1 4UF       0.062367
     43 H12          0.2440     1.3380    -3.7310 h1         1 4UF       0.062367
     44 H13         -0.4150     0.0810    -2.6740 h1         1 4UF       0.062367
     45 H15          5.1970    -1.6480    -9.9790 ha         1 4UF       0.151500
     46 H16          5.4440    -2.1870    -7.5900 ha         1 4UF       0.109500
     47 H17          6.5230     2.3610    -9.1940 ha         1 4UF       0.151500
     48 H18          6.7660     1.8010    -6.8080 ha         1 4UF       0.109500
     49 H19          7.0720     0.0330    -5.1740 h1         1 4UF       0.047700
     50 H20          6.5120    -1.6140    -5.4960 h1         1 4UF       0.047700
     51 H21          4.2360     0.0900    -5.3950 hn         1 4UF       0.334500
     52 H22         -0.6650    -0.0030     4.4290 hn         1 4UF       0.309700
     53 C20          0.2930     0.8990    -2.7420 c3         1 4UF       0.047600
     54 C31          5.6870     0.7250   -11.1760 c          1 4UF       0.880200
@<TRIPOS>BOND
     1    25    26 1   
     2    25    24 1   
     3    23    24 ar  
     4    23    22 ar  
     5    26    15 1   
     6    53    28 1   
     7    27    28 1   
     8    27    13 2   
     9    24    21 ar  
    10    22    19 ar  
    11    28    12 1   
    12    15    13 1   
    13    15    16 2   
    14    13    14 1   
    15    21    20 ar  
    16    19    20 ar  
    17    19    54 1   
    18    17    54 1   
    19    12    14 2   
    20    12     2 1   
    21     3     2 ar  
    22     3     4 ar  
    23    54    18 1   
    24     2     1 ar  
    25     4     6 ar  
    26     1     5 ar  
    27     6     5 ar  
    28     6    29 1   
    29     5     8 1   
    30    29     7 1   
    31     8     7 2   
    32     7     9 1   
    33     9    30 2   
    34     9    31 1   
    35    31    10 1   
    36    10    11 1   
    37     1    32 1   
    38     3    33 1   
    39     4    34 1   
    40     8    35 1   
    41    10    36 1   
    42    10    37 1   
    43    11    38 1   
    44    11    39 1   
    45    11    40 1   
    46    14    41 1   
    47    53    42 1   
    48    53    43 1   
    49    53    44 1   
    50    20    45 1   
    51    21    46 1   
    52    22    47 1   
    53    23    48 1   
    54    25    49 1   
    55    25    50 1   
    56    26    51 1   
    57    29    52 1   
@<TRIPOS>SUBSTRUCTURE
     1 4UF         1 TEMP              0 ****  ****    0 ROOT
