@<TRIPOS>MOLECULE
4UF
   54    57     1     0     0
SMALL
bcc


@<TRIPOS>ATOM
      1 C1           0.0000     0.0000     0.0000 ca         1 4UF      -0.077000
      2 C2           1.3880     0.0000     0.0000 ca         1 4UF      -0.006000
      3 C3           2.0920     0.0000     1.2110 ca         1 4UF      -0.056000
      4 C4           1.4270    -0.0010     2.4020 ca         1 4UF      -0.104000
      5 C5          -0.6880     0.0010     1.2180 ca         1 4UF      -0.116800
      6 C6           0.0350    -0.0010     2.4290 ca         1 4UF      -0.224200
      7 C8          -2.1540     0.0020     2.9130 cc         1 4UF      -0.327300
      8 C9          -2.0630     0.0050     1.5570 cd         1 4UF      -0.066200
      9 C10         -3.4060     0.0050     3.6820 c          1 4UF       0.745300
     10 C13         -4.6450     0.0040     5.7240 c3         1 4UF       0.233400
     11 C14         -4.4040    -0.0000     7.2340 c3         1 4UF      -0.004100
     12 C15          2.1260     0.0010    -1.2830 cc         1 4UF      -0.286300
     13 C18          3.6640    -0.2130    -2.8570 cd         1 4UF       0.258800
     14 C19          3.4190    -0.3980    -1.4790 cd         1 4UF      -0.204300
     15 C21          4.9270    -0.5020    -3.5680 c          1 4UF       0.510600
     16 O23          5.8810    -0.9440    -2.9580 o          1 4UF      -0.677100
     17 O33          5.3050    -0.1220   -11.9580 o          1 4UF      -0.883300
     18 O32          5.9760     1.9660   -11.6150 o          1 4UF      -0.883300
     19 C28          5.8360     0.3950    -9.7430 ca         1 4UF      -0.090600
     20 C27          5.5380    -0.8900    -9.2850 ca         1 4UF      -0.078000
     21 C26          5.6790    -1.1920    -7.9470 ca         1 4UF      -0.122000
     22 C29          6.2810     1.3650    -8.8430 ca         1 4UF      -0.078000
     23 C30          6.4230     1.0490    -7.5080 ca         1 4UF      -0.122000
     24 C25          6.1150    -0.2240    -7.0590 ca         1 4UF      -0.167300
     25 C24          6.2730    -0.5620    -5.5990 c3         1 4UF       0.115300
     26 N22          5.0210    -0.2750    -4.8930 ns         1 4UF      -0.162900
     27 N17          2.5550     0.2580    -3.3940 nc         1 4UF      -0.630800
     28 N16          1.6460     0.3940    -2.4980 na         1 4UF       0.612400
     29 N7          -0.8830    -0.0010     3.4530 na         1 4UF       0.391600
     30 O12         -4.4750     0.0110     3.1020 o          1 4UF      -0.579000
     31 O11         -3.3700     0.0010     5.0300 os         1 4UF      -0.431900
     32 H1          -0.5460    -0.0000    -0.9360 ha         1 4UF       0.119000
     33 H2           3.1750     0.0000     1.2020 ha         1 4UF       0.119000
     34 H3           1.9840    -0.0010     3.3310 ha         1 4UF       0.101000
     35 H4          -2.8900    -0.0810     0.8630 ha         1 4UF       0.140000
     36 H5          -5.2150    -0.8740     5.4470 h1         1 4UF       0.010200
     37 H6          -5.1980     0.8950     5.4490 h1         1 4UF       0.010200
     38 H7          -3.8390     0.8810     7.5120 hc         1 4UF       0.010367
     39 H8          -3.8460    -0.8880     7.5070 hc         1 4UF       0.010367
     40 H9          -5.3550     0.0020     7.7520 hc         1 4UF       0.010367
     41 H10          4.0070    -1.0090    -0.8040 ha         1 4UF       0.149000
     42 H11          0.0480     1.6500    -2.0010 h1         1 4UF       0.033033
     43 H12          0.2440     1.3380    -3.7310 h1         1 4UF       0.033033
     44 H13         -0.4150     0.0810    -2.6740 h1         1 4UF       0.033033
     45 H15          5.1970    -1.6480    -9.9790 ha         1 4UF       0.125500
     46 H16          5.4440    -2.1870    -7.5900 ha         1 4UF       0.088500
     47 H17          6.5230     2.3610    -9.1940 ha         1 4UF       0.125500
     48 H18          6.7660     1.8010    -6.8080 ha         1 4UF       0.088500
     49 H19          7.0720     0.0330    -5.1740 h1         1 4UF       0.019700
     50 H20          6.5120    -1.6140    -5.4960 h1         1 4UF       0.019700
     51 H21          4.2360     0.0900    -5.3950 hn         1 4UF       0.193500
     52 H22         -0.6650    -0.0030     4.4290 hn         1 4UF       0.122700
     53 C20          0.2930     0.8990    -2.7420 c3         1 4UF      -0.021400
     54 C31          5.6870     0.7250   -11.1760 c          1 4UF       0.972200
@<TRIPOS>BOND
     1     1     2 ar  
     2     1     5 ar  
     3     1    32 1   
     4     2     3 ar  
     5     2    12 1   
     6     3     4 ar  
     7     3    33 1   
     8     4     6 ar  
     9     4    34 1   
    10     5     6 ar  
    11     5     8 1   
    12     6    29 1   
    13     7     8 2   
    14     7     9 1   
    15     7    29 1   
    16     8    35 1   
    17     9    30 2   
    18     9    31 1   
    19    10    11 1   
    20    10    31 1   
    21    10    36 1   
    22    10    37 1   
    23    11    38 1   
    24    11    39 1   
    25    11    40 1   
    26    12    14 2   
    27    12    28 1   
    28    13    14 1   
    29    13    15 1   
    30    13    27 2   
    31    14    41 1   
    32    15    16 2   
    33    15    26 1   
    34    17    54 1   
    35    18    54 1   
    36    19    20 ar  
    37    19    22 ar  
    38    19    54 1   
    39    20    21 ar  
    40    20    45 1   
    41    21    24 ar  
    42    21    46 1   
    43    22    23 ar  
    44    22    47 1   
    45    23    24 ar  
    46    23    48 1   
    47    24    25 1   
    48    25    26 1   
    49    25    49 1   
    50    25    50 1   
    51    26    51 1   
    52    27    28 1   
    53    28    53 1   
    54    29    52 1   
    55    42    53 1   
    56    43    53 1   
    57    44    53 1   
@<TRIPOS>SUBSTRUCTURE
     1 4UF         1 TEMP              0 ****  ****    0 ROOT
