@<TRIPOS>MOLECULE
4UG
   30    31     1     0     0
SMALL
bcc


@<TRIPOS>ATOM
      1 C6           0.0000     0.0000     0.0000 c3         1 4UG      -0.093000
      2 C11          4.2670    -0.8840     0.8210 c3         1 4UG      -0.294000
      3 C13          1.5330     0.0000     0.0000 c3         1 4UG      -0.054000
      4 C15          1.2980     1.0640     2.2310 c2         1 4UG       0.234000
      5 C17          3.5220     0.2750     1.4870 DU         1 4UG       0.026000
      6 C19          6.4750    -1.6660     0.0990 c1         1 4UG      -0.311000
      7 C24          5.7580    -0.5520     0.7400 c3         1 4UG       0.248000
      8 C25          2.0170     0.0000     1.4530 c3         1 4UG      -0.453000
      9 C27         -0.4890     1.3390     0.5540 c3         1 4UG      -0.071000
     10 N3           4.0800    -2.1070     1.6140 nz         1 4UG       0.854000
     11 N4           0.1660     1.6370     1.8220 ns         1 4UG       0.026000
     12 O3           6.2730    -0.3490     2.0580 oh         1 4UG      -0.321000
     13 O4           1.7720     1.4210     3.2880 o          1 4UG      -0.413000
     14 H19         -0.3630    -0.8060     0.6260 hc         1 4UG       0.082000
     15 H20         -0.3630    -0.1280    -1.0130 hc         1 4UG       0.082000
     16 H21          3.8760    -1.0380    -0.1770 hx         1 4UG       0.142000
     17 H22          2.1250    -0.6580    -0.6250 hc         1 4UG       0.035000
     18 H23          1.7850     0.9890    -0.3630 hc         1 4UG       0.035000
     19 H24          3.7330     1.1940     0.9550 ha         1 4UG       0.101500
     20 H25          3.8480     0.3700     2.5160 ha         1 4UG       0.101500
     21 H26          5.8960     0.3500     0.1550 h1         1 4UG       0.100000
     22 H27          2.7270     0.5570     0.8540 DU         1 4UG       0.220000
     23 H28         -0.0300     2.1150    -0.0460 h1         1 4UG       0.071000
     24 H29         -1.5690     1.4180     0.6030 h1         1 4UG       0.071000
     25 H30          4.3980    -1.9510     2.5500 hn         1 4UG       0.035333
     26 H31         -0.2610     2.3140     2.4220 hn         1 4UG       0.117000
     27 H32          7.1530    -0.0140     2.0030 ho         1 4UG       0.254000
     28 H2           4.6050    -2.8540     1.2040 hn         1 4UG       0.035333
     29 H33          3.1090    -2.3510     1.6280 hn         1 4UG       0.035333
     30 N2           7.0450    -2.5150    -0.3970 n1         1 4UG       0.103000
@<TRIPOS>BOND
     1     1     3 1   
     2     1     9 1   
     3     1    14 1   
     4     1    15 1   
     5     2     5 1   
     6     2     7 1   
     7     2    10 1   
     8     2    16 1   
     9     3     8 1   
    10     3    17 1   
    11     3    18 1   
    12     4     8 1   
    13     4    11 1   
    14     4    13 1   
    15     5     8 1   
    16     5    19 1   
    17     5    20 1   
    18     5    22 1   
    19     6     7 1   
    20     6    30 1   
    21     7    12 1   
    22     7    21 1   
    23     8    22 1   
    24     9    11 1   
    25     9    23 1   
    26     9    24 1   
    27    10    25 1   
    28    10    28 1   
    29    10    29 1   
    30    11    26 1   
    31    12    27 1   
@<TRIPOS>SUBSTRUCTURE
     1 4UG         1 TEMP              0 ****  ****    0 ROOT
