@<TRIPOS>MOLECULE
molecule
   30    30     1     0     0
SMALL
bcc


@<TRIPOS>ATOM
      1 C6           0.0000     0.0000     0.0000 c3         1 4UG      -0.072400
      2 C11          4.2670    -0.8840     0.8210 c3         1 4UG       0.120500
      3 C13          1.5330     0.0000     0.0000 c3         1 4UG      -0.066400
      4 C15          1.2980     1.0640     2.2310 c          1 4UG       0.713500
      5 C17          3.5220     0.2750     1.4870 c3         1 4UG      -0.021400
      6 C19          6.4750    -1.6660     0.0990 c1         1 4UG       0.098700
      7 C24          5.7580    -0.5520     0.7400 c3         1 4UG       0.202200
      8 C25          2.0170     0.0000     1.4530 c3         1 4UG      -0.458700
      9 C27         -0.4890     1.3390     0.5540 c3         1 4UG       0.102000
     10 N3           4.0800    -2.1070     1.6140 nz         1 4UG      -0.797600
     11 N4           0.1660     1.6370     1.8220 ns         1 4UG      -0.568900
     12 O3           6.2730    -0.3490     2.0580 oh         1 4UG      -0.599800
     13 O4           1.7720     1.4210     3.2880 o          1 4UG      -0.650500
     14 H19         -0.3630    -0.8060     0.6260 hc         1 4UG       0.075700
     15 H20         -0.3630    -0.1280    -1.0130 hc         1 4UG       0.075700
     16 H21          3.8760    -1.0380    -0.1770 hx         1 4UG       0.124700
     17 H22          2.1250    -0.6580    -0.6250 hc         1 4UG       0.023700
     18 H23          1.7850     0.9890    -0.3630 hc         1 4UG       0.023700
     19 H24          3.7330     1.1940     0.9550 hc         1 4UG       0.105700
     20 H25          3.8480     0.3700     2.5160 hc         1 4UG       0.105700
     21 H26          5.8960     0.3500     0.1550 h1         1 4UG       0.111700
     22 H27          2.7270     0.5570     0.8540 hc         1 4UG       0.236700
     23 H28         -0.0300     2.1150    -0.0460 h1         1 4UG       0.063200
     24 H29         -1.5690     1.4180     0.6030 h1         1 4UG       0.063200
     25 H30          4.3980    -1.9510     2.5500 hn         1 4UG       0.471133
     26 H31         -0.2610     2.3140     2.4220 hn         1 4UG       0.348500
     27 H32          7.1530    -0.0140     2.0030 ho         1 4UG       0.464000
     28 H2           4.6050    -2.8540     1.2040 hn         1 4UG       0.471133
     29 H33          3.1090    -2.3510     1.6280 hn         1 4UG       0.471133
     30 N2           7.0450    -2.5150    -0.3970 n1         1 4UG      -0.237800
@<TRIPOS>BOND
     1    30     6 3
     2     6     7 1
     3    12     7 1
     4     7     2 1
     5     2    10 1
     6     2     5 1
     7     5     8 1
     8     8     3 1
     9     8     4 1
    10     3     1 1
    11    13     4 2
    12     4    11 1
    13     1     9 1
    14    11     9 1
    15     1    14 1
    16     1    15 1
    17     2    16 1
    18     3    17 1
    19     3    18 1
    20     5    19 1
    21     5    20 1
    22     7    21 1
    23     8    22 1
    24     9    23 1
    25     9    24 1
    26    10    25 1
    27    11    26 1
    28    12    27 1
    29    10    28 1
    30    29    10 1
@<TRIPOS>SUBSTRUCTURE
     1 4UG         1 TEMP              0 ****  ****    0 ROOT
