@<TRIPOS>MOLECULE
molecule
   32    34     1     0     0
SMALL
bcc


@<TRIPOS>ATOM
      1 C7           0.0000     0.0000     0.0000 ca         1 4UJ      -0.090000
      2 C6           1.3840     0.0000     0.0000 ca         1 4UJ      -0.133000
      3 C1           3.7070     0.0080     7.9790 cc         1 4UJ      -0.229400
      4 N1           1.4330     0.0040     4.8510 ns         1 4UJ      -0.514400
      5 C5           2.0770     0.0000     1.1940 ca         1 4UJ       0.083400
      6 C4           1.3770     0.0020     2.4040 ca         1 4UJ      -0.147600
      7 C3           2.1110     0.0030     3.6870 c          1 4UJ       0.670700
      8 C2           2.1230     0.0050     6.0560 cd         1 4UJ       0.572300
      9 Cl           3.8130    -0.0010     1.1930 cl         1 4UJ      -0.053400
     10 C8          -0.6980     0.0070     1.1950 ca         1 4UJ      -0.136000
     11 C9          -0.0190     0.0030     2.3950 ca         1 4UJ      -0.092000
     12 O            3.3270     0.0030     3.6900 o          1 4UJ      -0.564100
     13 S            3.8760     0.0060     6.2250 ss         1 4UJ      -0.115300
     14 N            1.5770    -0.0020     7.2320 nc         1 4UJ      -0.736000
     15 C            2.3950     0.0030     8.2750 cc         1 4UJ       0.448800
     16 C10          1.8980    -0.0050     9.6720 ca         1 4UJ      -0.118500
     17 C15          0.5280    -0.0170     9.9270 ca         1 4UJ      -0.106500
     18 C14          0.0710    -0.0250    11.2290 ca         1 4UJ      -0.133000
     19 C13          0.9690    -0.0200    12.2810 ca         1 4UJ      -0.124000
     20 C12          2.3300    -0.0080    12.0340 ca         1 4UJ      -0.133000
     21 C11          2.7990    -0.0050    10.7360 ca         1 4UJ      -0.106500
     22 H1          -0.5390     0.0020    -0.9400 ha         1 4UJ       0.142000
     23 H2           1.9250    -0.0040    -0.9390 ha         1 4UJ       0.152000
     24 H4           0.4330     0.0040     4.8470 hn         1 4UJ       0.343500
     25 H5          -1.7810     0.0070     1.1870 ha         1 4UJ       0.141000
     26 H6          -0.5680     0.0060     3.3290 ha         1 4UJ       0.134000
     27 H7          -0.1770    -0.0210     9.1050 ha         1 4UJ       0.139500
     28 H8          -0.9940    -0.0350    11.4280 ha         1 4UJ       0.130000
     29 H9           0.6060    -0.0240    13.3010 ha         1 4UJ       0.128000
     30 H10          3.0300    -0.0060    12.8610 ha         1 4UJ       0.130000
     31 H11          3.8650     0.0040    10.5440 ha         1 4UJ       0.139500
     32 H3           4.5200     0.0110     8.6950 h4         1 4UJ       0.181000
@<TRIPOS>BOND
     1    19    20 ar  
     2    19    18 ar  
     3    20    21 ar  
     4    18    17 ar  
     5    21    16 ar  
     6    17    16 ar  
     7    16    15 1   
     8    15    14 1   
     9    15     3 2   
    10    14     8 2   
    11     3    13 1   
    12     8     4 1   
    13     8    13 1   
    14     4     7 1   
    15     7     6 1   
    16     7    12 2   
    17    11     6 ar  
    18    11    10 ar  
    19     6     5 ar  
    20    10     1 ar  
    21     5     9 1   
    22     5     2 ar  
    23     1     2 ar  
    24     1    22 1   
    25     2    23 1   
    26     3    32 1   
    27     4    24 1   
    28    10    25 1   
    29    11    26 1   
    30    17    27 1   
    31    18    28 1   
    32    19    29 1   
    33    20    30 1   
    34    21    31 1   
@<TRIPOS>SUBSTRUCTURE
     1 4UJ         1 TEMP              0 ****  ****    0 ROOT
