@<TRIPOS>MOLECULE
4UJ
   32    34     1     0     0
SMALL
bcc


@<TRIPOS>ATOM
      1 C7           0.0000     0.0000     0.0000 ca         1 4UJ      -0.059000
      2 C6           1.3840     0.0000     0.0000 ca         1 4UJ      -0.113000
      3 C1           3.7070     0.0080     7.9790 cc         1 4UJ      -0.151400
      4 N1           1.4330     0.0040     4.8510 ns         1 4UJ      -0.056400
      5 C5           2.0770     0.0000     1.1940 ca         1 4UJ       0.011400
      6 C4           1.3770     0.0020     2.4040 ca         1 4UJ      -0.163600
      7 C3           2.1110     0.0030     3.6870 c          1 4UJ       0.569700
      8 C2           2.1230     0.0050     6.0560 cc         1 4UJ       0.425300
      9 Cl           3.8130    -0.0010     1.1930 cl         1 4UJ       0.045600
     10 C8          -0.6980     0.0070     1.1950 ca         1 4UJ      -0.110000
     11 C9          -0.0190     0.0030     2.3950 ca         1 4UJ      -0.070000
     12 O            3.3270     0.0030     3.6900 o          1 4UJ      -0.599100
     13 S            3.8760     0.0060     6.2250 ss         1 4UJ      -0.243300
     14 N            1.5770    -0.0020     7.2320 nd         1 4UJ      -0.614000
     15 C            2.3950     0.0030     8.2750 cd         1 4UJ       0.412800
     16 C10          1.8980    -0.0050     9.6720 ca         1 4UJ      -0.129500
     17 C15          0.5280    -0.0170     9.9270 ca         1 4UJ      -0.084000
     18 C14          0.0710    -0.0250    11.2290 ca         1 4UJ      -0.105500
     19 C13          0.9690    -0.0200    12.2810 ca         1 4UJ      -0.097000
     20 C12          2.3300    -0.0080    12.0340 ca         1 4UJ      -0.105500
     21 C11          2.7990    -0.0050    10.7360 ca         1 4UJ      -0.084000
     22 H1          -0.5390     0.0020    -0.9400 ha         1 4UJ       0.107000
     23 H2           1.9250    -0.0040    -0.9390 ha         1 4UJ       0.119000
     24 H4           0.4330     0.0040     4.8470 hn         1 4UJ       0.181500
     25 H5          -1.7810     0.0070     1.1870 ha         1 4UJ       0.110000
     26 H6          -0.5680     0.0060     3.3290 ha         1 4UJ       0.105000
     27 H7          -0.1770    -0.0210     9.1050 ha         1 4UJ       0.113000
     28 H8          -0.9940    -0.0350    11.4280 ha         1 4UJ       0.102000
     29 H9           0.6060    -0.0240    13.3010 ha         1 4UJ       0.101000
     30 H10          3.0300    -0.0060    12.8610 ha         1 4UJ       0.102000
     31 H11          3.8650     0.0040    10.5440 ha         1 4UJ       0.113000
     32 H3           4.5200     0.0110     8.6950 h4         1 4UJ       0.165000
@<TRIPOS>BOND
     1     1     2 ar  
     2     1    10 ar  
     3     1    22 1   
     4     2     5 ar  
     5     2    23 1   
     6     3    13 1   
     7     3    15 2   
     8     3    32 1   
     9     4     7 1   
    10     4     8 1   
    11     4    24 1   
    12     5     6 ar  
    13     5     9 1   
    14     6     7 1   
    15     6    11 ar  
    16     7    12 2   
    17     8    13 1   
    18     8    14 2   
    19    10    11 ar  
    20    10    25 1   
    21    11    26 1   
    22    14    15 1   
    23    15    16 1   
    24    16    17 ar  
    25    16    21 ar  
    26    17    18 ar  
    27    17    27 1   
    28    18    19 ar  
    29    18    28 1   
    30    19    20 ar  
    31    19    29 1   
    32    20    21 ar  
    33    20    30 1   
    34    21    31 1   
@<TRIPOS>SUBSTRUCTURE
     1 4UJ         1 TEMP              0 ****  ****    0 ROOT
