@<TRIPOS>MOLECULE
molecule
   52    54     1     0     0
SMALL
bcc


@<TRIPOS>ATOM
      1 O1           0.0000     0.0000     0.0000 o          1 4UK      -0.603100
      2 C7           4.9930    10.6420    -6.4640 ca         1 4UK      -0.123500
      3 C6           4.2670    11.1700    -5.4110 ca         1 4UK       0.025400
      4 C1           5.0950     6.3100    -6.9630 cc         1 4UK      -0.251600
      5 N1           4.8800     4.9680    -6.7760 na         1 4UK      -0.288900
      6 C5           3.5920    10.3300    -4.5410 ca         1 4UK      -0.123500
      7 C4           3.6400     8.9630    -4.7200 ca         1 4UK      -0.107500
      8 C3           4.3700     8.4260    -5.7800 ca         1 4UK      -0.093500
      9 C2           4.4250     6.9580    -5.9780 cc         1 4UK       0.376800
     10 F1           4.3330     0.5800    -7.9530 f          1 4UK      -0.224300
     11 F            6.0690     0.6680    -6.4700 f          1 4UK      -0.224300
     12 C11          3.9350    -0.0200    -5.6910 ca         1 4UK      -0.101300
     13 C12          3.4800    -1.2090    -5.1580 ca         1 4UK      -0.110000
     14 C13          2.5810    -1.1990    -4.1070 ca         1 4UK      -0.089000
     15 C14          2.1320    -0.0010    -3.5820 ca         1 4UK      -0.103300
     16 C16          1.1540    -0.0010    -2.4360 c3         1 4UK       0.157300
     17 N3           1.8860     0.0000    -1.1670 ns         1 4UK      -0.590900
     18 C17          1.2130     0.0000     0.0000 c          1 4UK       0.660100
     19 C18          1.9670     0.0000     1.3040 c3         1 4UK      -0.149700
     20 C20          0.9740     0.0010     2.4680 c3         1 4UK      -0.080600
     21 C19          2.8470    -1.2490     1.3850 c3         1 4UK      -0.080600
     22 C15          2.5800     1.1950    -4.1050 ca         1 4UK      -0.091000
     23 C10          3.4910     1.1940    -5.1620 ca         1 4UK      -0.112600
     24 C9           3.9750     2.4710    -5.7280 c          1 4UK       0.679700
     25 O            4.6880     2.4680    -6.7120 o          1 4UK      -0.592100
     26 N2           3.6260     3.6380    -5.1510 ns         1 4UK      -0.519400
     27 C            4.0800     4.8370    -5.6820 cd         1 4UK       0.529400
     28 N            3.8170     6.0290    -5.2080 nc         1 4UK      -0.727000
     29 C8           5.0470     9.2760    -6.6530 ca         1 4UK      -0.107500
     30 Cl           4.2030    12.8880    -5.1780 cl         1 4UK      -0.114400
     31 H1           5.5200    11.3020    -7.1430 ha         1 4UK       0.143000
     32 H2           5.6890     6.7650    -7.7470 h4         1 4UK       0.181000
     33 H3           5.2410     4.2240    -7.3390 hn         1 4UK       0.340700
     34 H4           3.0250    10.7480    -3.7180 ha         1 4UK       0.143000
     35 H5           3.1110     8.3070    -4.0390 ha         1 4UK       0.144500
     36 H6           5.1860    -1.0510    -7.0840 h2         1 4UK       0.064700
     37 H7           3.8270    -2.1510    -5.5640 ha         1 4UK       0.145000
     38 H8           2.2270    -2.1350    -3.6930 ha         1 4UK       0.147000
     39 H9           0.5310    -0.8860    -2.4930 h1         1 4UK       0.064200
     40 H10          0.5300     0.8830    -2.4940 h1         1 4UK       0.064200
     41 H11          2.8870     0.0360    -1.1680 hn         1 4UK       0.317500
     42 H12          2.5890     0.8850     1.3610 hc         1 4UK       0.063700
     43 H13          1.5160     0.0430     3.4050 hc         1 4UK       0.042867
     44 H14          0.3780    -0.9040     2.4360 hc         1 4UK       0.042867
     45 H15          0.3240     0.8640     2.3880 hc         1 4UK       0.042867
     46 H16          3.0790    -1.4600     2.4220 hc         1 4UK       0.042867
     47 H17          3.7650    -1.0800     0.8360 hc         1 4UK       0.042867
     48 H18          2.3190    -2.0910     0.9550 hc         1 4UK       0.042867
     49 H19          2.2300     2.1330    -3.6910 ha         1 4UK       0.141000
     50 H20          3.0670     3.6380    -4.3210 hn         1 4UK       0.353500
     51 H22          5.6160     8.8640    -7.4780 ha         1 4UK       0.144500
     52 C21          4.9140    -0.0320    -6.8360 c3         1 4UK       0.465200
@<TRIPOS>BOND
     1    30     3 1   
     2     3     2 ar  
     3     3     6 ar  
     4     2    29 ar  
     5     6     7 ar  
     6    29     8 ar  
     7     7     8 ar  
     8     8     9 1   
     9    20    19 1   
    10    21    19 1   
    11    19    18 1   
    12     9    28 1   
    13     9     4 2   
    14    28    27 2   
    15     4     5 1   
    16    18     1 2   
    17    18    17 1   
    18    27     5 1   
    19    27    26 1   
    20    17    16 1   
    21    26    24 1   
    22    16    15 1   
    23    24    23 1   
    24    24    25 2   
    25    22    15 ar  
    26    22    23 ar  
    27    15    14 ar  
    28    23    12 ar  
    29    10    52 1   
    30    14    13 ar  
    31    12    13 ar  
    32    12    52 1   
    33    52    11 1   
    34     2    31 1   
    35     4    32 1   
    36     5    33 1   
    37     6    34 1   
    38     7    35 1   
    39    52    36 1   
    40    13    37 1   
    41    14    38 1   
    42    16    39 1   
    43    16    40 1   
    44    17    41 1   
    45    19    42 1   
    46    20    43 1   
    47    20    44 1   
    48    20    45 1   
    49    21    46 1   
    50    21    47 1   
    51    21    48 1   
    52    22    49 1   
    53    26    50 1   
    54    29    51 1   
@<TRIPOS>SUBSTRUCTURE
     1 4UK         1 TEMP              0 ****  ****    0 ROOT
