@<TRIPOS>MOLECULE
4UK
   52    54     1     0     0
SMALL
bcc


@<TRIPOS>ATOM
      1 O1           0.0000     0.0000     0.0000 o          1 4UK      -0.639100
      2 C7           4.9930    10.6420    -6.4640 ca         1 4UK      -0.101000
      3 C6           4.2670    11.1700    -5.4110 ca         1 4UK      -0.036600
      4 C1           5.0950     6.3100    -6.9630 cc         1 4UK      -0.423600
      5 N1           4.8800     4.9680    -6.7760 na         1 4UK       0.251100
      6 C5           3.5920    10.3300    -4.5410 ca         1 4UK      -0.101000
      7 C4           3.6400     8.9630    -4.7200 ca         1 4UK      -0.083000
      8 C3           4.3700     8.4260    -5.7800 ca         1 4UK      -0.094500
      9 C2           4.4250     6.9580    -5.9780 cd         1 4UK       0.363800
     10 F1           4.3330     0.5800    -7.9530 f          1 4UK      -0.217800
     11 F            6.0690     0.6680    -6.4700 f          1 4UK      -0.217800
     12 C11          3.9350    -0.0200    -5.6910 ca         1 4UK      -0.113300
     13 C12          3.4800    -1.2090    -5.1580 ca         1 4UK      -0.070000
     14 C13          2.5810    -1.1990    -4.1070 ca         1 4UK      -0.064000
     15 C14          2.1320    -0.0010    -3.5820 ca         1 4UK      -0.105300
     16 C16          1.1540    -0.0010    -2.4360 c3         1 4UK       0.109300
     17 N3           1.8860     0.0000    -1.1670 ns         1 4UK      -0.208900
     18 C17          1.2130     0.0000     0.0000 c          1 4UK       0.576100
     19 C18          1.9670     0.0000     1.3040 c3         1 4UK      -0.122700
     20 C20          0.9740     0.0010     2.4680 c3         1 4UK       0.015400
     21 C19          2.8470    -1.2490     1.3850 c3         1 4UK       0.015400
     22 C15          2.5800     1.1950    -4.1050 ca         1 4UK      -0.072000
     23 C10          3.4910     1.1940    -5.1620 ca         1 4UK      -0.109600
     24 C9           3.9750     2.4710    -5.7280 c          1 4UK       0.574700
     25 O            4.6880     2.4680    -6.7120 o          1 4UK      -0.652100
     26 N2           3.6260     3.6380    -5.1510 ns         1 4UK      -0.047400
     27 C            4.0800     4.8370    -5.6820 cc         1 4UK       0.163400
     28 N            3.8170     6.0290    -5.2080 nd         1 4UK      -0.641000
     29 C8           5.0470     9.2760    -6.6530 ca         1 4UK      -0.083000
     30 Cl           4.2030    12.8880    -5.1780 cl         1 4UK      -0.035400
     31 H1           5.5200    11.3020    -7.1430 ha         1 4UK       0.113000
     32 H2           5.6890     6.7650    -7.7470 h4         1 4UK       0.160000
     33 H3           5.2410     4.2240    -7.3390 hn         1 4UK       0.177700
     34 H4           3.0250    10.7480    -3.7180 ha         1 4UK       0.113000
     35 H5           3.1110     8.3070    -4.0390 ha         1 4UK       0.115500
     36 H6           5.1860    -1.0510    -7.0840 h2         1 4UK       0.024700
     37 H7           3.8270    -2.1510    -5.5640 ha         1 4UK       0.115000
     38 H8           2.2270    -2.1350    -3.6930 ha         1 4UK       0.116000
     39 H9           0.5310    -0.8860    -2.4930 h1         1 4UK       0.033200
     40 H10          0.5300     0.8830    -2.4940 h1         1 4UK       0.033200
     41 H11          2.8870     0.0360    -1.1680 hn         1 4UK       0.179500
     42 H12          2.5890     0.8850     1.3610 hc         1 4UK       0.034700
     43 H13          1.5160     0.0430     3.4050 hc         1 4UK       0.009033
     44 H14          0.3780    -0.9040     2.4360 hc         1 4UK       0.009033
     45 H15          0.3240     0.8640     2.3880 hc         1 4UK       0.009033
     46 H16          3.0790    -1.4600     2.4220 hc         1 4UK       0.009033
     47 H17          3.7650    -1.0800     0.8360 hc         1 4UK       0.009033
     48 H18          2.3190    -2.0910     0.9550 hc         1 4UK       0.009033
     49 H19          2.2300     2.1330    -3.6910 ha         1 4UK       0.116000
     50 H20          3.0670     3.6380    -4.3210 hn         1 4UK       0.185500
     51 H22          5.6160     8.8640    -7.4780 ha         1 4UK       0.115500
     52 C21          4.9140    -0.0320    -6.8360 c3         1 4UK       0.485200
@<TRIPOS>BOND
     1     1    18 2   
     2     2     3 ar  
     3     2    29 ar  
     4     2    31 1   
     5     3     6 ar  
     6     3    30 1   
     7     4     5 1   
     8     4     9 2   
     9     4    32 1   
    10     5    27 1   
    11     5    33 1   
    12     6     7 ar  
    13     6    34 1   
    14     7     8 ar  
    15     7    35 1   
    16     8     9 1   
    17     8    29 ar  
    18     9    28 1   
    19    10    52 1   
    20    11    52 1   
    21    12    13 ar  
    22    12    23 ar  
    23    12    52 1   
    24    13    14 ar  
    25    13    37 1   
    26    14    15 ar  
    27    14    38 1   
    28    15    16 1   
    29    15    22 ar  
    30    16    17 1   
    31    16    39 1   
    32    16    40 1   
    33    17    18 1   
    34    17    41 1   
    35    18    19 1   
    36    19    20 1   
    37    19    21 1   
    38    19    42 1   
    39    20    43 1   
    40    20    44 1   
    41    20    45 1   
    42    21    46 1   
    43    21    47 1   
    44    21    48 1   
    45    22    23 ar  
    46    22    49 1   
    47    23    24 1   
    48    24    25 2   
    49    24    26 1   
    50    26    27 1   
    51    26    50 1   
    52    27    28 2   
    53    29    51 1   
    54    36    52 1   
@<TRIPOS>SUBSTRUCTURE
     1 4UK         1 TEMP              0 ****  ****    0 ROOT
