@<TRIPOS>MOLECULE
molecule
   57    59     1     0     0
SMALL
bcc


@<TRIPOS>ATOM
      1 O1           0.0000     0.0000     0.0000 o          1 4UL      -0.601100
      2 C7           3.9050    11.0780    -6.2950 ca         1 4UL      -0.184300
      3 C6           4.0380    10.4310    -7.5100 ca         1 4UL      -0.084000
      4 C1           5.1710     6.1500    -7.1990 cc         1 4UL      -0.200900
      5 N1           4.9840     4.8220    -6.9130 na         1 4UL      -0.285900
      6 C5           4.1720     9.0580    -7.5520 ca         1 4UL      -0.120500
      7 C4           4.1750     8.3230    -6.3680 ca         1 4UL      -0.063500
      8 C3           4.3200     6.8480    -6.4070 cc         1 4UL       0.364800
      9 C2           6.1430     6.7250    -8.1980 c3         1 4UL      -0.014800
     10 F4           4.3680     0.5090    -7.9010 f          1 4UL      -0.220800
     11 F3           6.0980     0.3960    -6.4140 f          1 4UL      -0.220800
     12 C13          3.9060    -0.1050    -5.6550 ca         1 4UL       0.412600
     13 N3           3.4440    -1.2130    -5.1140 nb         1 4UL      -0.673000
     14 C14          2.5880    -1.1960    -4.1120 ca         1 4UL       0.461200
     15 C15          2.1330    -0.0020    -3.5810 ca         1 4UL      -0.229600
     16 C17          1.1540    -0.0010    -2.4360 c3         1 4UL       0.161300
     17 N4           1.8870    -0.0010    -1.1670 ns         1 4UL      -0.592900
     18 C18          1.2130     0.0000     0.0000 c          1 4UL       0.661100
     19 C19          1.9660     0.0000     1.3050 c3         1 4UL      -0.149700
     20 C21          2.8460     1.2500     1.3860 c3         1 4UL      -0.080600
     21 C20          0.9720     0.0010     2.4690 c3         1 4UL      -0.080600
     22 C16          2.5880     1.1910    -4.1130 ca         1 4UL      -0.056000
     23 C12          3.5020     1.1410    -5.1720 ca         1 4UL      -0.238900
     24 C11          4.0200     2.3850    -5.7780 c          1 4UL       0.682700
     25 O            4.8880     2.3320    -6.6270 o          1 4UL      -0.590100
     26 N2           3.5310     3.5790    -5.3880 ns         1 4UL      -0.517400
     27 C            4.0170     4.7470    -5.9570 cd         1 4UL       0.524400
     28 N            3.6250     5.9620    -5.6600 nc         1 4UL      -0.717000
     29 C9           4.0410     8.9810    -5.1460 ca         1 4UL      -0.120500
     30 C8           3.9070    10.3540    -5.1160 ca         1 4UL      -0.084000
     31 C10          3.7650    12.5780    -6.2550 c3         1 4UL       0.673200
     32 F2           2.4110    12.9210    -6.3210 f          1 4UL      -0.224967
     33 F1           4.3130    13.0660    -5.0630 f          1 4UL      -0.224967
     34 F            4.4420    13.1390    -7.3430 f          1 4UL      -0.224967
     35 H1           4.0360    11.0020    -8.4300 ha         1 4UL       0.146000
     36 H2           5.4650     4.0510    -7.3320 hn         1 4UL       0.340700
     37 H3           4.2760     8.5520    -8.5050 ha         1 4UL       0.146500
     38 H4           6.8960     5.9840    -8.4370 hc         1 4UL       0.052033
     39 H5           6.6200     7.6010    -7.7750 hc         1 4UL       0.052033
     40 H6           5.6120     7.0030    -9.1000 hc         1 4UL       0.052033
     41 H7           5.0460    -1.2190    -7.0660 h2         1 4UL       0.088700
     42 H8           2.2330    -2.1330    -3.6980 h4         1 4UL       0.041100
     43 H9           0.5310     0.8840    -2.4930 h1         1 4UL       0.065700
     44 H10          0.5310    -0.8860    -2.4930 h1         1 4UL       0.065700
     45 H11          2.8870    -0.0460    -1.1670 hn         1 4UL       0.318500
     46 H12          2.5890    -0.8850     1.3630 hc         1 4UL       0.063700
     47 H13          3.0800     1.4610     2.4220 hc         1 4UL       0.043367
     48 H14          3.7650     1.0810     0.8360 hc         1 4UL       0.043367
     49 H15          2.3180     2.0920     0.9550 hc         1 4UL       0.043367
     50 H16          0.3780     0.9060     2.4350 hc         1 4UL       0.043367
     51 H17          0.3220    -0.8610     2.3900 hc         1 4UL       0.043367
     52 H18          1.5140    -0.0390     3.4060 hc         1 4UL       0.043367
     53 H19          2.2510     2.1410    -3.7150 ha         1 4UL       0.149000
     54 H20          2.7990     3.6220    -4.7070 hn         1 4UL       0.352500
     55 H22          4.0420     8.4150    -4.2220 ha         1 4UL       0.146500
     56 H23          3.8030    10.8660    -4.1670 ha         1 4UL       0.146000
     57 C22          4.8830    -0.1810    -6.7990 c3         1 4UL       0.371600
@<TRIPOS>BOND
     1    32    31 1   
     2    33    31 1   
     3    34    31 1   
     4    31     2 1   
     5     2     3 ar  
     6     2    30 ar  
     7     3     6 ar  
     8    30    29 ar  
     9     6     7 ar  
    10    29     7 ar  
    11     7     8 1   
    12    21    19 1   
    13    20    19 1   
    14    19    18 1   
    15     8    28 1   
    16     8     4 2   
    17    28    27 2   
    18    18     1 2   
    19    18    17 1   
    20     4     9 1   
    21     4     5 1   
    22    27     5 1   
    23    27    26 1   
    24    17    16 1   
    25    26    24 1   
    26    16    15 1   
    27    22    15 ar  
    28    22    23 ar  
    29    24    23 1   
    30    24    25 2   
    31    15    14 ar  
    32    23    12 ar  
    33    11    57 1   
    34    14    13 ar  
    35    12    13 ar  
    36    12    57 1   
    37    57    10 1   
    38     3    35 1   
    39     5    36 1   
    40     6    37 1   
    41     9    38 1   
    42     9    39 1   
    43     9    40 1   
    44    57    41 1   
    45    14    42 1   
    46    16    43 1   
    47    16    44 1   
    48    17    45 1   
    49    19    46 1   
    50    20    47 1   
    51    20    48 1   
    52    20    49 1   
    53    21    50 1   
    54    21    51 1   
    55    21    52 1   
    56    22    53 1   
    57    26    54 1   
    58    29    55 1   
    59    30    56 1   
@<TRIPOS>SUBSTRUCTURE
     1 4UL         1 TEMP              0 ****  ****    0 ROOT
