@<TRIPOS>MOLECULE
4UM
   30    31     1     0     0
SMALL
bcc


@<TRIPOS>ATOM
      1 C10          0.0000     0.0000     0.0000 c          1 4UM       0.732300
      2 C11          6.8960     0.0070     2.7690 c          1 4UM       0.359700
      3 C16         -1.8610    -0.0110    -1.4960 c3         1 4UM       0.236400
      4 C17         -2.1490    -0.0160    -2.9980 c3         1 4UM      -0.004100
      5 C1           3.3970     0.0000     1.3860 ca         1 4UM      -0.156800
      6 C2           3.6610     0.0000     0.0000 ca         1 4UM      -0.203200
      7 C3           1.9890     0.0000     1.5390 cc         1 4UM      -0.032200
      8 C4           4.4590     0.0040     2.2950 ca         1 4UM       0.136000
      9 N5           2.4500    -0.0000    -0.6470 na         1 4UM       0.448600
     10 C6           4.9790    -0.0010    -0.4530 ca         1 4UM      -0.047000
     11 C7           1.4400     0.0000     0.2960 cd         1 4UM      -0.296300
     12 C8           5.7650     0.0020     1.8190 ca         1 4UM      -0.288600
     13 C9           6.0110    -0.0020     0.4380 ca         1 4UM      -0.099000
     14 O12         -0.4250    -0.0050    -1.2800 os         1 4UM      -0.431900
     15 O13         -0.8070    -0.0010     0.9090 o          1 4UM      -0.544000
     16 N14          8.1620     0.0040     2.3080 nz         1 4UM       0.202600
     17 O15          6.6830     0.0120     3.9660 o          1 4UM      -0.453100
     18 H1          -2.2980     0.8730    -1.0480 h1         1 4UM       0.016700
     19 H2          -2.2910    -0.8960    -1.0420 h1         1 4UM       0.016700
     20 H3          -1.7190     0.8680    -3.4520 hc         1 4UM       0.015367
     21 H4          -3.2200    -0.0210    -3.1610 hc         1 4UM       0.015367
     22 H5          -1.7130    -0.9010    -3.4470 hc         1 4UM       0.015367
     23 H6           1.4500     0.1020     2.4740 ha         1 4UM       0.158000
     24 H7           4.2670    -0.1310     3.3520 ha         1 4UM       0.130000
     25 H8           2.3210    -0.0010    -1.6390 hn         1 4UM       0.139700
     26 H9           5.1850    -0.0040    -1.5160 ha         1 4UM       0.120000
     27 H10          7.0320    -0.0060     0.0750 ha         1 4UM       0.080000
     28 H11          8.3130    -0.8160     1.7550 hn         1 4UM       0.244133
     29 H12          8.3150     0.8190     1.7470 hn         1 4UM       0.244133
     30 H143         8.7980     0.0070     3.0810 hn         1 4UM       0.244133
@<TRIPOS>BOND
     1     1    11 1   
     2     1    14 1   
     3     1    15 2   
     4     2    12 1   
     5     2    16 1   
     6     2    17 2   
     7     3     4 1   
     8     3    14 1   
     9     3    18 1   
    10     3    19 1   
    11     4    20 1   
    12     4    21 1   
    13     4    22 1   
    14     5     6 ar  
    15     5     7 1   
    16     5     8 ar  
    17     6     9 1   
    18     6    10 ar  
    19     7    11 2   
    20     7    23 1   
    21     8    12 ar  
    22     8    24 1   
    23     9    11 1   
    24     9    25 1   
    25    10    13 ar  
    26    10    26 1   
    27    12    13 ar  
    28    13    27 1   
    29    16    28 1   
    30    16    29 1   
    31    16    30 1   
@<TRIPOS>SUBSTRUCTURE
     1 4UM         1 TEMP              0 ****  ****    0 ROOT
