@<TRIPOS>MOLECULE
molecule
   30    31     1     0     0
SMALL
bcc


@<TRIPOS>ATOM
      1 C10          0.0000     0.0000     0.0000 c          1 4UM       0.660300
      2 C11          6.8960     0.0070     2.7690 c          1 4UM       0.509700
      3 C16         -1.8610    -0.0110    -1.4960 c3         1 4UM       0.149400
      4 C17         -2.1490    -0.0160    -2.9980 c3         1 4UM      -0.097100
      5 C1           3.3970     0.0000     1.3860 ca         1 4UM      -0.136800
      6 C2           3.6610     0.0000     0.0000 ca         1 4UM       0.003800
      7 C3           1.9890     0.0000     1.5390 cc         1 4UM      -0.088200
      8 C4           4.4590     0.0040     2.2950 ca         1 4UM       0.066000
      9 N5           2.4500    -0.0000    -0.6470 na         1 4UM      -0.127400
     10 C6           4.9790    -0.0010    -0.4530 ca         1 4UM      -0.103000
     11 C7           1.4400     0.0000     0.2960 cd         1 4UM      -0.078300
     12 C8           5.7650     0.0020     1.8190 ca         1 4UM      -0.258600
     13 C9           6.0110    -0.0020     0.4380 ca         1 4UM      -0.115000
     14 O12         -0.4250    -0.0050    -1.2800 os         1 4UM      -0.438900
     15 O13         -0.8070    -0.0010     0.9090 o          1 4UM      -0.504000
     16 N14          8.1620     0.0040     2.3080 nz         1 4UM      -0.676400
     17 O15          6.6830     0.0120     3.9660 o          1 4UM      -0.435100
     18 H1          -2.2980     0.8730    -1.0480 h1         1 4UM       0.059200
     19 H2          -2.2910    -0.8960    -1.0420 h1         1 4UM       0.059200
     20 H3          -1.7190     0.8680    -3.4520 hc         1 4UM       0.054367
     21 H4          -3.2200    -0.0210    -3.1610 hc         1 4UM       0.054367
     22 H5          -1.7130    -0.9010    -3.4470 hc         1 4UM       0.054367
     23 H6           1.4500     0.1020     2.4740 ha         1 4UM       0.194000
     24 H7           4.2670    -0.1310     3.3520 ha         1 4UM       0.172000
     25 H8           2.3210    -0.0010    -1.6390 hn         1 4UM       0.332700
     26 H9           5.1850    -0.0040    -1.5160 ha         1 4UM       0.156000
     27 H10          7.0320    -0.0060     0.0750 ha         1 4UM       0.108000
     28 H11          8.3130    -0.8160     1.7550 hn         1 4UM       0.475467
     29 H12          8.3150     0.8190     1.7470 hn         1 4UM       0.475467
     30 H143         8.7980     0.0070     3.0810 hn         1 4UM       0.475467
@<TRIPOS>BOND
     1    17     2 2   
     2     2    16 1   
     3     2    12 1   
     4    13    12 ar  
     5    13    10 ar  
     6    12     8 ar  
     7    10     6 ar  
     8     8     5 ar  
     9     6     5 ar  
    10     6     9 1   
    11     5     7 1   
    12     9    11 1   
    13     7    11 2   
    14    11     1 1   
    15     1    15 2   
    16     1    14 1   
    17    14     3 1   
    18     3     4 1   
    19     3    18 1   
    20     3    19 1   
    21     4    20 1   
    22     4    21 1   
    23     4    22 1   
    24     7    23 1   
    25     8    24 1   
    26     9    25 1   
    27    10    26 1   
    28    13    27 1   
    29    16    28 1   
    30    16    29 1   
    31    30    16 1   
@<TRIPOS>SUBSTRUCTURE
     1 4UM         1 TEMP              0 ****  ****    0 ROOT
