@<TRIPOS>MOLECULE
4UN
   52    55     1     0     0
SMALL
bcc


@<TRIPOS>ATOM
      1 O16         1.6730   -1.9070   -1.5970 o         1 4UN     -0.736533
      2 S13         2.7360   -0.9760   -1.5890 s6        1 4UN      1.534700
      3 O14         3.5490   -1.0300   -0.4270 o         1 4UN     -0.736533
      4 O15         3.4830   -1.0020   -2.7990 o         1 4UN     -0.736533
      5 N8          2.0350    0.6000   -1.4900 nh        1 4UN     -0.731500
      6 C4          1.2460    1.2130   -2.4340 ca        1 4UN      0.249600
      7 C5          1.1060    2.6250   -2.4980 ca        1 4UN     -0.218500
      8 C2          0.4550    3.2270   -3.5660 ca        1 4UN     -0.079500
      9 C6         -0.0980    2.4620   -4.5970 ca        1 4UN     -0.185300
     10 C3         -0.0940    1.0650   -4.4660 ca        1 4UN     -0.079500
     11 C1          0.5540    0.4440   -3.4140 ca        1 4UN     -0.218500
     12 C49        -0.6370    3.0910   -5.8290 c3        1 4UN     -0.005100
     13 C10         0.4730    3.3820   -6.8780 c3        1 4UN     -0.064600
     14 C17        -0.1760    3.6510   -8.2130 cc        1 4UN      0.550800
     15 N22        -1.3570    4.2930   -8.4090 nd        1 4UN     -0.382300
     16 O29        -1.5710    4.3350   -9.7050 os        1 4UN     -0.157600
     17 C27        -0.4780    3.6910  -10.3650 cd        1 4UN      0.513200
     18 C28        -0.5330    3.6210  -11.8330 c3        1 4UN     -0.145400
     19 N23         0.3990    3.2660   -9.4620 nc        1 4UN     -0.669500
     20 C18         1.3380    2.1530   -6.9640 cc        1 4UN      0.550800
     21 N20         1.0060    0.9990   -7.6020 nd        1 4UN     -0.382300
     22 O25         1.9400    0.1180   -7.3220 os        1 4UN     -0.157600
     23 C26         2.9050    0.7300   -6.4580 cd        1 4UN      0.513200
     24 C24         3.9800   -0.1260   -5.9400 c3        1 4UN     -0.145400
     25 N21         2.5620    2.0000   -6.2500 nc        1 4UN     -0.669500
     26 C19         1.2450    4.6350   -6.4350 c3        1 4UN     -0.029100
     27 C36         2.2350    5.1800   -7.4030 ca        1 4UN     -0.067300
     28 C40         1.8230    6.0530   -8.4190 ca        1 4UN     -0.116500
     29 C43         2.7510    6.6090   -9.2960 ca        1 4UN     -0.138000
     30 C39         4.1060    6.3040   -9.1650 ca        1 4UN     -0.137000
     31 C42         4.5260    5.4470   -8.1500 ca        1 4UN     -0.138000
     32 C41         3.5990    4.8920   -7.2680 ca        1 4UN     -0.116500
     33 HN8         2.3350    1.1960   -0.7560 hn        1 4UN      0.412800
     34 H5          1.5480    3.2530   -1.7110 ha        1 4UN      0.142500
     35 H2          0.3960    4.3250   -3.6120 ha        1 4UN      0.116000
     36 H3         -0.5970    0.4470   -5.2270 ha        1 4UN      0.116000
     37 H1          0.5610   -0.6580   -3.3410 ha        1 4UN      0.142500
     38 H491       -1.1520    4.0570   -5.5820 hc        1 4UN      0.054200
     39 H492       -1.3940    2.4080   -6.2980 hc        1 4UN      0.054200
     40 H281       -1.4400    4.1570  -12.2070 hc        1 4UN      0.083700
     41 H282       -0.5770    2.5500  -12.1560 hc        1 4UN      0.083700
     42 H283        0.3830    4.0930  -12.2690 hc        1 4UN      0.083700
     43 H241        4.9530    0.4220   -5.9550 hc        1 4UN      0.083700
     44 H242        4.0590   -1.0560   -6.5530 hc        1 4UN      0.083700
     45 H243        3.7470   -0.4140   -4.8690 hc        1 4UN      0.083700
     46 H191        0.4830    5.4350   -6.2200 hc        1 4UN      0.072700
     47 H192        1.7580    4.3930   -5.4630 hc        1 4UN      0.072700
     48 H40         0.7560    6.3010   -8.5220 ha        1 4UN      0.143000
     49 H43         2.4140    7.2890  -10.0900 ha        1 4UN      0.122500
     50 H39         4.8380    6.7390   -9.8590 ha        1 4UN      0.119000
     51 H42         5.5930    5.2050   -8.0400 ha        1 4UN      0.122500
     52 H41         3.9420    4.2250   -6.4610 ha        1 4UN      0.143000
@<TRIPOS>BOND
     1    1    2 1   
     2    2    3 1   
     3    2    4 1   
     4    2    5 1   
     5    5    6 1   
     6    5   33 1   
     7    6    7 ar  
     8    6   11 ar  
     9    7    8 ar  
    10    7   34 1   
    11    8    9 ar  
    12    8   35 1   
    13    9   10 ar  
    14    9   12 1   
    15   10   11 ar  
    16   10   36 1   
    17   11   37 1   
    18   12   13 1   
    19   12   38 1   
    20   12   39 1   
    21   13   14 1   
    22   13   20 1   
    23   13   26 1   
    24   14   15 2   
    25   14   19 1   
    26   15   16 1   
    27   16   17 1   
    28   17   18 1   
    29   17   19 2   
    30   18   40 1   
    31   18   41 1   
    32   18   42 1   
    33   20   21 2   
    34   20   25 1   
    35   21   22 1   
    36   22   23 1   
    37   23   24 1   
    38   23   25 2   
    39   24   43 1   
    40   24   44 1   
    41   24   45 1   
    42   26   27 1   
    43   26   46 1   
    44   26   47 1   
    45   27   28 ar  
    46   27   32 ar  
    47   28   29 ar  
    48   28   48 1   
    49   29   30 ar  
    50   29   49 1   
    51   30   31 ar  
    52   30   50 1   
    53   31   32 ar  
    54   31   51 1   
    55   32   52 1   
@<TRIPOS>SUBSTRUCTURE
     1 4UN         1 TEMP              0 ****  ****    0 ROOT
