@<TRIPOS>MOLECULE
4UO
   32    34     1     0     0
SMALL
bcc


@<TRIPOS>ATOM
      1 O6         -0.0910    0.3290   -0.5990 o         1 4UO     -0.579500
      2 C6          1.1230    0.0900   -0.5680 c         1 4UO      0.657000
      3 N1          1.6680   -0.5080    0.5930 n         1 4UO     -0.593500
      4 C2          3.0190   -0.8380    0.7710 c         1 4UO      0.820500
      5 O2          3.4280   -1.3640    1.8270 o         1 4UO     -0.633500
      6 N3          3.9500   -0.5770   -0.2650 n         1 4UO     -0.449100
      7 C4          3.4750    0.0120   -1.4190 cc        1 4UO     -0.004000
      8 C5          2.0980    0.3580   -1.6170 cd        1 4UO      0.189800
      9 N7          1.9290    0.9410   -2.8760 nd        1 4UO     -0.571000
     10 C8          3.1520    0.9540   -3.4320 cc        1 4UO      0.406400
     11 N9          4.1460    0.3900   -2.5880 na        1 4UO     -0.246900
     12 C1'         5.5690    0.2970   -2.8070 c3        1 4UO      0.215800
     13 O4'         5.8860    0.6550   -4.1560 os        1 4UO     -0.408600
     14 C4'         6.5610   -0.4200   -4.8330 c3        1 4UO      0.058100
     15 C5'         5.6160   -1.0310   -5.8680 c3        1 4UO      0.114400
     16 O5'         5.3210   -0.1050   -6.8880 oh        1 4UO     -0.582800
     17 C3'         7.0130   -1.4400   -3.7750 c3        1 4UO      0.091100
     18 O3'         8.3630   -1.2310   -3.4070 oh        1 4UO     -0.597800
     19 C2'         6.1460   -1.1360   -2.5350 c3        1 4UO      0.113100
     20 O2'         6.8190   -1.1650   -1.3060 oh        1 4UO     -0.584800
     21 H1          1.0580   -0.7140    1.3560 hn        1 4UO      0.356500
     22 H2          4.9090   -0.8170   -0.1300 hn        1 4UO      0.373500
     23 H3          3.4170    1.3490   -4.4190 h5        1 4UO      0.076100
     24 H4          6.0850    1.0630   -2.1500 h2        1 4UO      0.097700
     25 H5          7.4360    0.0720   -5.3410 h1        1 4UO      0.102700
     26 H6          4.6730   -1.3830   -5.3700 h1        1 4UO      0.058200
     27 H7          6.1170   -1.8890   -6.3910 h1        1 4UO      0.058200
     28 H8          4.9170    0.6660   -6.4670 ho        1 4UO      0.412000
     29 H9          6.8570   -2.4940   -4.1260 h1        1 4UO      0.074700
     30 H10         8.9130   -1.6030   -4.1070 ho        1 4UO      0.427000
     31 H11         5.3330   -1.9090   -2.4390 h1        1 4UO      0.105700
     32 H12         7.6910   -0.7560   -1.4140 ho        1 4UO      0.440000
@<TRIPOS>BOND
     1    1    2 2   
     2    2    3 1   
     3    2    8 1   
     4    3    4 1   
     5    3   21 1   
     6    4    5 2   
     7    4    6 1   
     8    6    7 1   
     9    6   22 1   
    10    7    8 2   
    11    7   11 1   
    12    8    9 1   
    13    9   10 2   
    14   10   11 1   
    15   10   23 1   
    16   11   12 1   
    17   12   13 1   
    18   12   19 1   
    19   12   24 1   
    20   13   14 1   
    21   14   15 1   
    22   14   17 1   
    23   14   25 1   
    24   15   16 1   
    25   15   26 1   
    26   15   27 1   
    27   16   28 1   
    28   17   18 1   
    29   17   19 1   
    30   17   29 1   
    31   18   30 1   
    32   19   20 1   
    33   19   31 1   
    34   20   32 1   
@<TRIPOS>SUBSTRUCTURE
     1 4UO         1 TEMP              0 ****  ****    0 ROOT
