@<TRIPOS>MOLECULE
molecule
   39    42     1     0     0
SMALL
bcc


@<TRIPOS>ATOM
      1 N2           0.0000     0.0000     0.0000 nz         1 4UP      -0.741600
      2 C1           1.3780     0.0000     0.0000 ce         1 4UP       0.525800
      3 N1           2.0290     0.0000     1.1280 n2         1 4UP      -0.735100
      4 C2           2.1180     0.0010    -1.2820 ca         1 4UP      -0.246900
      5 C11          3.5020    -0.0050    -1.2750 ca         1 4UP      -0.036000
      6 C10          4.1970    -0.0050    -2.4930 ca         1 4UP      -0.042000
      7 C5           3.4720     0.0010    -3.7120 ca         1 4UP      -0.015000
      8 C4           2.0660     0.0080    -3.6840 ca         1 4UP      -0.065000
      9 C3           1.4100     0.0010    -2.4950 ca         1 4UP      -0.155000
     10 C9           5.6040    -0.0100    -2.5270 ca         1 4UP      -0.125000
     11 C8           6.2480    -0.0100    -3.7260 ca         1 4UP      -0.086000
     12 C7           5.5350    -0.0040    -4.9230 ca         1 4UP      -0.005300
     13 C6           4.1730     0.0020    -4.9290 ca         1 4UP      -0.112000
     14 C12          6.2820    -0.0020    -6.2320 cx         1 4UP       0.063400
     15 C13          6.8450     1.3300    -6.7300 cx         1 4UP       0.129400
     16 O            7.6800     0.2980    -6.2000 op         1 4UP      -0.363600
     17 C14          6.8790     1.5660    -8.2190 ca         1 4UP      -0.100300
     18 C19          5.9000     2.3360    -8.8190 ca         1 4UP      -0.108000
     19 C18          5.9300     2.5510   -10.1840 ca         1 4UP      -0.125500
     20 C17          6.9390     1.9980   -10.9480 ca         1 4UP      -0.111000
     21 C16          7.9180     1.2290   -10.3480 ca         1 4UP      -0.125500
     22 C15          7.8910     1.0170    -8.9830 ca         1 4UP      -0.108000
     23 H1          -0.3350     0.8170    -0.4710 hn         1 4UP       0.472800
     24 H2          -0.3350    -0.8170    -0.4710 hn         1 4UP       0.472800
     25 H3           3.0300     0.0000     1.1310 hn         1 4UP       0.481400
     26 H4           4.0390     0.1280    -0.3440 ha         1 4UP       0.139000
     27 H5           1.5060     0.0080    -4.6120 ha         1 4UP       0.157000
     28 H6           0.3270    -0.0050    -2.4820 ha         1 4UP       0.104000
     29 H7           6.2110    -0.0140    -1.6300 ha         1 4UP       0.150000
     30 H8           7.2900    -0.2180    -3.5110 ha         1 4UP       0.169000
     31 H9           3.5640    -0.1980    -5.8020 ha         1 4UP       0.155000
     32 H10          5.9830    -0.6910    -7.0120 h1         1 4UP       0.118700
     33 H11          6.6840     2.1700    -6.0650 h1         1 4UP       0.101700
     34 H12          5.1090     2.7700    -8.2190 ha         1 4UP       0.137000
     35 H13          5.1630     3.1550   -10.6540 ha         1 4UP       0.139000
     36 H14          6.9620     2.1650   -12.0180 ha         1 4UP       0.139000
     37 H15          8.7110     0.7970   -10.9470 ha         1 4UP       0.139000
     38 H16          8.6590     0.4140    -8.5120 ha         1 4UP       0.137000
     39 H23         -0.3340     0.0090     0.9440 hn         1 4UP       0.472800
@<TRIPOS>BOND
     1     3     2 2   
     2    10    11 ar  
     3    10     6 ar  
     4     5     6 ar  
     5     5     4 ar  
     6    11    12 ar  
     7     2     1 1   
     8     2     4 1   
     9     6     7 ar  
    10     4     9 ar  
    11    16    14 1   
    12    16    15 1   
    13    12    14 1   
    14    12    13 ar  
    15     7    13 ar  
    16     7     8 ar  
    17    14    15 1   
    18     9     8 ar  
    19    15    17 1   
    20    22    17 ar  
    21    22    21 ar  
    22    17    18 ar  
    23    21    20 ar  
    24    18    19 ar  
    25    20    19 ar  
    26     1    23 1   
    27     1    24 1   
    28     3    25 1   
    29     5    26 1   
    30     8    27 1   
    31     9    28 1   
    32    10    29 1   
    33    11    30 1   
    34    13    31 1   
    35    14    32 1   
    36    15    33 1   
    37    18    34 1   
    38    19    35 1   
    39    20    36 1   
    40    21    37 1   
    41    22    38 1   
    42    39     1 1   
@<TRIPOS>SUBSTRUCTURE
     1 4UP         1 TEMP              0 ****  ****    0 ROOT
