@<TRIPOS>MOLECULE
4UP
   39    42     1     0     0
SMALL
bcc


@<TRIPOS>ATOM
      1 N2           0.0000     0.0000     0.0000 nz         1 4UP       0.122400
      2 C1           1.3780     0.0000     0.0000 ce         1 4UP       0.243800
      3 N1           2.0290     0.0000     1.1280 n2         1 4UP      -0.480100
      4 C2           2.1180     0.0010    -1.2820 ca         1 4UP      -0.221900
      5 C11          3.5020    -0.0050    -1.2750 ca         1 4UP       0.043000
      6 C10          4.1970    -0.0050    -2.4930 ca         1 4UP      -0.060000
      7 C5           3.4720     0.0010    -3.7120 ca         1 4UP      -0.019000
      8 C4           2.0660     0.0080    -3.6840 ca         1 4UP      -0.032000
      9 C3           1.4100     0.0010    -2.4950 ca         1 4UP      -0.139000
     10 C9           5.6040    -0.0100    -2.5270 ca         1 4UP      -0.094000
     11 C8           6.2480    -0.0100    -3.7260 ca         1 4UP      -0.063000
     12 C7           5.5350    -0.0040    -4.9230 ca         1 4UP       0.003700
     13 C6           4.1730     0.0020    -4.9290 ca         1 4UP      -0.090000
     14 C12          6.2820    -0.0020    -6.2320 cx         1 4UP       0.116400
     15 C13          6.8450     1.3300    -6.7300 cx         1 4UP       0.190400
     16 O            7.6800     0.2980    -6.2000 op         1 4UP      -0.373600
     17 C14          6.8790     1.5660    -8.2190 ca         1 4UP      -0.112300
     18 C19          5.9000     2.3360    -8.8190 ca         1 4UP      -0.082000
     19 C18          5.9300     2.5510   -10.1840 ca         1 4UP      -0.097500
     20 C17          6.9390     1.9980   -10.9480 ca         1 4UP      -0.084000
     21 C16          7.9180     1.2290   -10.3480 ca         1 4UP      -0.097500
     22 C15          7.8910     1.0170    -8.9830 ca         1 4UP      -0.082000
     23 H1          -0.3350    -0.0020     0.9430 hn         1 4UP       0.226133
     24 H2          -0.3350     0.8180    -0.4700 hn         1 4UP       0.226133
     25 H3           1.5290    -0.0000     1.9950 hn         1 4UP       0.335400
     26 H4           4.0400     0.1190    -0.3430 ha         1 4UP       0.131000
     27 H5           1.5060     0.0080    -4.6120 ha         1 4UP       0.122000
     28 H6           0.3270    -0.0080    -2.4820 ha         1 4UP       0.076000
     29 H7           6.1920    -0.0180    -1.6170 ha         1 4UP       0.120000
     30 H8           7.2720    -0.2230    -3.4410 ha         1 4UP       0.137000
     31 H9           3.5270    -0.2010    -5.7740 ha         1 4UP       0.125000
     32 H10          5.9820    -0.6910    -7.0120 h1         1 4UP       0.077700
     33 H11          6.6830     2.1700    -6.0650 h1         1 4UP       0.060700
     34 H12          5.1090     2.7700    -8.2190 ha         1 4UP       0.110000
     35 H13          5.1630     3.1550   -10.6540 ha         1 4UP       0.108500
     36 H14          6.9620     2.1650   -12.0180 ha         1 4UP       0.108000
     37 H15          8.7110     0.7970   -10.9470 ha         1 4UP       0.108500
     38 H16          8.6590     0.4140    -8.5120 ha         1 4UP       0.110000
     39 H23         -0.3350    -0.8200    -0.4650 hn         1 4UP       0.226133
@<TRIPOS>BOND
     1     1     2 1   
     2     1    23 1   
     3     1    24 1   
     4     1    39 1   
     5     2     3 2   
     6     2     4 1   
     7     3    25 1   
     8     4     5 ar  
     9     4     9 ar  
    10     5     6 ar  
    11     5    26 1   
    12     6     7 ar  
    13     6    10 ar  
    14     7     8 ar  
    15     7    13 ar  
    16     8     9 ar  
    17     8    27 1   
    18     9    28 1   
    19    10    11 ar  
    20    10    29 1   
    21    11    12 ar  
    22    11    30 1   
    23    12    13 ar  
    24    12    14 1   
    25    13    31 1   
    26    14    15 1   
    27    14    16 1   
    28    14    32 1   
    29    15    16 1   
    30    15    17 1   
    31    15    33 1   
    32    17    18 ar  
    33    17    22 ar  
    34    18    19 ar  
    35    18    34 1   
    36    19    20 ar  
    37    19    35 1   
    38    20    21 ar  
    39    20    36 1   
    40    21    22 ar  
    41    21    37 1   
    42    22    38 1   
@<TRIPOS>SUBSTRUCTURE
     1 4UP         1 TEMP              0 ****  ****    0 ROOT
