@<TRIPOS>MOLECULE
4UQ
   84    88     1     0     0
SMALL
bcc


@<TRIPOS>ATOM
      1 C13          0.0000     0.0000     0.0000 ca         1 4UQ      -0.122600
      2 C16         -0.7390     0.0050    -1.2770 c          1 4UQ       0.600700
      3 C15         -0.0030    -0.0000     2.4020 ca         1 4UQ      -0.112500
      4 C19          0.7830    -1.7260    -2.1200 c3         1 4UQ      -0.007500
      5 C20          0.3430    -3.1390    -2.5200 c3         1 4UQ       0.200400
      6 C22         -1.4490    -2.3020    -3.8790 c3         1 4UQ       0.200400
      7 C23         -1.1020    -0.8460    -3.5500 c3         1 4UQ      -0.007500
      8 C11          2.0850     0.0000     1.1920 ca         1 4UQ      -0.112500
      9 C12          1.3980     0.0000     0.0000 ca         1 4UQ      -0.051500
     10 C34          8.4090     1.1260    -2.4840 ca         1 4UQ      -0.173600
     11 C27          5.3280     2.6780    -0.8900 c3         1 4UQ       0.025700
     12 N1           5.5020     2.4520     1.5430 nh         1 4UQ      -0.439300
     13 N2           3.8280     1.2320     2.6330 nb         1 4UQ      -0.696000
     14 C3           4.9720     1.8980     2.6960 ca         1 4UQ       0.593200
     15 C4           5.6500     2.0490     3.9040 ca         1 4UQ      -0.268300
     16 C5           5.1280     1.5030     5.0450 ca         1 4UQ       0.013000
     17 C6           3.9160     0.8020     4.9590 ca         1 4UQ      -0.472900
     18 C7           3.2830     0.6870     3.7090 ca         1 4UQ       0.613200
     19 N9           2.0870    -0.0000     3.6020 nu         1 4UQ      -0.228300
     20 C10          1.3890    -0.0000     2.3980 ca         1 4UQ      -0.055400
     21 C14         -0.6960    -0.0000     1.2130 ca         1 4UQ      -0.051500
     22 N17         -0.3690    -0.8210    -2.2740 n          1 4UQ      -0.138800
     23 O18         -1.6840     0.7560    -1.4290 o          1 4UQ      -0.631100
     24 O21         -0.2620    -3.0960    -3.8140 os         1 4UQ      -0.397600
     25 N24          3.8690     0.4080     7.3690 nz         1 4UQ       0.215600
     26 O25          2.3180    -0.4930     6.0580 o          1 4UQ      -0.532100
     27 C26          4.6420     2.1810     0.3850 c3         1 4UQ       0.111800
     28 C28          5.5930     4.1820    -0.7670 c3         1 4UQ      -0.048400
     29 C29          6.4520     4.4400     0.4740 c3         1 4UQ      -0.030400
     30 C30          5.7330     3.8920     1.7090 c3         1 4UQ       0.140800
     31 N31          6.5970     1.9700    -1.0700 ns         1 4UQ      -0.210900
     32 C32          7.1270     1.8420    -2.3020 c          1 4UQ       0.604700
     33 O33          6.5530     2.3130    -3.2640 o          1 4UQ      -0.641100
     34 C35          8.9620     0.9920    -3.7590 ca         1 4UQ      -0.056000
     35 C36         10.1570     0.3230    -3.9220 ca         1 4UQ      -0.116500
     36 C37         10.8090    -0.2120    -2.8260 ca         1 4UQ      -0.042300
     37 C38         10.2670    -0.0820    -1.5600 ca         1 4UQ      -0.116500
     38 C39          9.0740     0.5890    -1.3820 ca         1 4UQ      -0.056000
     39 C40         12.1120    -0.9470    -3.0120 c3         1 4UQ      -0.021700
     40 C41         13.2100    -0.2490    -2.2080 c3         1 4UQ       0.005900
     41 C42         11.9590    -2.3880    -2.5240 c3         1 4UQ       0.005900
     42 C43         12.4880    -0.9480    -4.4950 c3         1 4UQ       0.005900
     43 H1          -0.5410    -0.0000     3.3410 ha         1 4UQ       0.129000
     44 H2           1.5900    -1.4000    -2.7650 h1         1 4UQ       0.043450
     45 H3           1.1100    -1.7250    -1.0880 h1         1 4UQ       0.043450
     46 H4           1.2080    -3.7910    -2.5480 h1         1 4UQ       0.017700
     47 H5          -0.3740    -3.5110    -1.7980 h1         1 4UQ       0.017700
     48 H6          -2.1710    -2.6720    -3.1600 h1         1 4UQ       0.017700
     49 H7          -1.8650    -2.3570    -4.8770 h1         1 4UQ       0.017700
     50 H8          -0.4810    -0.4340    -4.3350 h1         1 4UQ       0.043450
     51 H9          -2.0130    -0.2670    -3.4560 h1         1 4UQ       0.043450
     52 H10          3.1690     0.0000     1.1930 ha         1 4UQ       0.129000
     53 H11          1.9410     0.0000    -0.9380 ha         1 4UQ       0.128500
     54 H12          4.6830     2.4950    -1.7400 h1         1 4UQ       0.068700
     55 H13          6.6290     2.4960     3.7770 ha         1 4UQ       0.150000
     56 H14          5.7390     1.4200     5.9350 ha         1 4UQ       0.086000
     57 H15          1.7420    -0.5280     4.3800 hn         1 4UQ       0.335800
     58 H16         -1.7790    -0.0000     1.2160 ha         1 4UQ       0.128500
     59 H17          4.7810    -0.0020     7.3950 hn         1 4UQ       0.240800
     60 H18          3.9420     1.3940     7.5280 hn         1 4UQ       0.240800
     61 H19          3.6970     2.6970     0.5100 h1         1 4UQ       0.044200
     62 H20          4.4690     1.1140     0.3070 h1         1 4UQ       0.044200
     63 H21          6.1180     4.5290    -1.6480 hc         1 4UQ       0.040200
     64 H22          4.6500     4.7070    -0.6700 hc         1 4UQ       0.040200
     65 H23          6.6050     5.5070     0.5900 hc         1 4UQ       0.032700
     66 H24          7.4070     3.9420     0.3620 hc         1 4UQ       0.032700
     67 H25          6.3460     4.0590     2.5860 h1         1 4UQ       0.025200
     68 H26          4.7820     4.3970     1.8250 h1         1 4UQ       0.025200
     69 H27          7.0420     1.5340    -0.2870 hn         1 4UQ       0.186500
     70 H28          8.4190     1.3510    -4.6250 ha         1 4UQ       0.110500
     71 H29         10.5870     0.2180    -4.9110 ha         1 4UQ       0.120500
     72 H30         10.7790    -0.5080    -0.7060 ha         1 4UQ       0.120500
     73 H31          8.6940     0.7620    -0.3820 ha         1 4UQ       0.110500
     74 H32         14.1730    -0.6660    -2.4750 hc         1 4UQ       0.009144
     75 H33         13.0330    -0.3980    -1.1500 hc         1 4UQ       0.009144
     76 H34         13.2010     0.8110    -2.4300 hc         1 4UQ       0.009144
     77 H35         11.0580    -2.8190    -2.9440 hc         1 4UQ       0.009144
     78 H36         11.8930    -2.3980    -1.4420 hc         1 4UQ       0.009144
     79 H37         12.8170    -2.9690    -2.8380 hc         1 4UQ       0.009144
     80 H38         11.7110    -1.4440    -5.0640 hc         1 4UQ       0.009144
     81 H39         12.5940     0.0730    -4.8420 hc         1 4UQ       0.009144
     82 H40         13.4250    -1.4740    -4.6290 hc         1 4UQ       0.009144
     83 H243         3.2960    -0.0080     8.0760 hn         1 4UQ       0.240800
     84 C8           3.3150     0.1970     6.1590 c          1 4UQ       0.363700
@<TRIPOS>BOND
     1     1     2 1   
     2     1     9 ar  
     3     1    21 ar  
     4     2    22 1   
     5     2    23 2   
     6     3    20 ar  
     7     3    21 ar  
     8     3    43 1   
     9     4     5 1   
    10     4    22 1   
    11     4    44 1   
    12     4    45 1   
    13     5    24 1   
    14     5    46 1   
    15     5    47 1   
    16     6     7 1   
    17     6    24 1   
    18     6    48 1   
    19     6    49 1   
    20     7    22 1   
    21     7    50 1   
    22     7    51 1   
    23     8     9 ar  
    24     8    20 ar  
    25     8    52 1   
    26     9    53 1   
    27    10    32 1   
    28    10    34 ar  
    29    10    38 ar  
    30    11    27 1   
    31    11    28 1   
    32    11    31 1   
    33    11    54 1   
    34    12    14 1   
    35    12    27 1   
    36    12    30 1   
    37    13    14 ar  
    38    13    18 ar  
    39    14    15 ar  
    40    15    16 ar  
    41    15    55 1   
    42    16    17 ar  
    43    16    56 1   
    44    17    18 ar  
    45    17    84 1   
    46    18    19 1   
    47    19    20 1   
    48    19    57 1   
    49    21    58 1   
    50    25    59 1   
    51    25    60 1   
    52    25    83 1   
    53    25    84 1   
    54    26    84 2   
    55    27    61 1   
    56    27    62 1   
    57    28    29 1   
    58    28    63 1   
    59    28    64 1   
    60    29    30 1   
    61    29    65 1   
    62    29    66 1   
    63    30    67 1   
    64    30    68 1   
    65    31    32 1   
    66    31    69 1   
    67    32    33 2   
    68    34    35 ar  
    69    34    70 1   
    70    35    36 ar  
    71    35    71 1   
    72    36    37 ar  
    73    36    39 1   
    74    37    38 ar  
    75    37    72 1   
    76    38    73 1   
    77    39    40 1   
    78    39    41 1   
    79    39    42 1   
    80    40    74 1   
    81    40    75 1   
    82    40    76 1   
    83    41    77 1   
    84    41    78 1   
    85    41    79 1   
    86    42    80 1   
    87    42    81 1   
    88    42    82 1   
@<TRIPOS>SUBSTRUCTURE
     1 4UQ         1 TEMP              0 ****  ****    0 ROOT
