@<TRIPOS>MOLECULE
molecule
   84    88     1     0     0
SMALL
bcc


@<TRIPOS>ATOM
      1 C13          0.0000     0.0000     0.0000 ca         1 4UQ      -0.129600
      2 C16         -0.7390     0.0050    -1.2770 c          1 4UQ       0.672700
      3 C15         -0.0030    -0.0000     2.4020 ca         1 4UQ      -0.143500
      4 C19          0.7830    -1.7260    -2.1200 c3         1 4UQ       0.061000
      5 C20          0.3430    -3.1390    -2.5200 c3         1 4UQ       0.121400
      6 C22         -1.4490    -2.3020    -3.8790 c3         1 4UQ       0.121400
      7 C23         -1.1020    -0.8460    -3.5500 c3         1 4UQ       0.061000
      8 C11          2.0850     0.0000     1.1920 ca         1 4UQ      -0.143500
      9 C12          1.3980     0.0000     0.0000 ca         1 4UQ      -0.079500
     10 C34          8.4090     1.1260    -2.4840 ca         1 4UQ      -0.160600
     11 C27          5.3280     2.6780    -0.8900 c3         1 4UQ       0.118700
     12 N1           5.5020     2.4520     1.5430 nh         1 4UQ      -0.691300
     13 N2           3.8280     1.2320     2.6330 nb         1 4UQ      -0.800000
     14 C3           4.9720     1.8980     2.6960 ca         1 4UQ       0.724200
     15 C4           5.6500     2.0490     3.9040 ca         1 4UQ      -0.295300
     16 C5           5.1280     1.5030     5.0450 ca         1 4UQ      -0.027000
     17 C6           3.9160     0.8020     4.9590 ca         1 4UQ      -0.450900
     18 C7           3.2830     0.6870     3.7090 ca         1 4UQ       0.814200
     19 N9           2.0870    -0.0000     3.6020 nu         1 4UQ      -0.723300
     20 C10          1.3890    -0.0000     2.3980 ca         1 4UQ       0.119600
     21 C14         -0.6960    -0.0000     1.2130 ca         1 4UQ      -0.079500
     22 N17         -0.3690    -0.8210    -2.2740 n          1 4UQ      -0.485800
     23 O18         -1.6840     0.7560    -1.4290 o          1 4UQ      -0.592100
     24 O21         -0.2620    -3.0960    -3.8140 os         1 4UQ      -0.412600
     25 N24          3.8690     0.4080     7.3690 nz         1 4UQ      -0.670400
     26 O25          2.3180    -0.4930     6.0580 o          1 4UQ      -0.497100
     27 C26          4.6420     2.1810     0.3850 c3         1 4UQ       0.148800
     28 C28          5.5930     4.1820    -0.7670 c3         1 4UQ      -0.100400
     29 C29          6.4520     4.4400     0.4740 c3         1 4UQ      -0.082400
     30 C30          5.7330     3.8920     1.7090 c3         1 4UQ       0.166800
     31 N31          6.5970     1.9700    -1.0700 ns         1 4UQ      -0.586900
     32 C32          7.1270     1.8420    -2.3020 c          1 4UQ       0.675700
     33 O33          6.5530     2.3130    -3.2640 o          1 4UQ      -0.604100
     34 C35          8.9620     0.9920    -3.7590 ca         1 4UQ      -0.085000
     35 C36         10.1570     0.3230    -3.9220 ca         1 4UQ      -0.137000
     36 C37         10.8090    -0.2120    -2.8260 ca         1 4UQ      -0.038300
     37 C38         10.2670    -0.0820    -1.5600 ca         1 4UQ      -0.137000
     38 C39          9.0740     0.5890    -1.3820 ca         1 4UQ      -0.085000
     39 C40         12.1120    -0.9470    -3.0120 c3         1 4UQ      -0.030700
     40 C41         13.2100    -0.2490    -2.2080 c3         1 4UQ      -0.081433
     41 C42         11.9590    -2.3880    -2.5240 c3         1 4UQ      -0.081433
     42 C43         12.4880    -0.9480    -4.4950 c3         1 4UQ      -0.081433
     43 H1          -0.5410    -0.0000     3.3410 ha         1 4UQ       0.151500
     44 H2           1.5900    -1.4000    -2.7650 h1         1 4UQ       0.067950
     45 H3           1.1100    -1.7250    -1.0880 h1         1 4UQ       0.067950
     46 H4           1.2080    -3.7910    -2.5480 h1         1 4UQ       0.057950
     47 H5          -0.3740    -3.5110    -1.7980 h1         1 4UQ       0.057950
     48 H6          -2.1710    -2.6720    -3.1600 h1         1 4UQ       0.057950
     49 H7          -1.8650    -2.3570    -4.8770 h1         1 4UQ       0.057950
     50 H8          -0.4810    -0.4340    -4.3350 h1         1 4UQ       0.067950
     51 H9          -2.0130    -0.2670    -3.4560 h1         1 4UQ       0.067950
     52 H10          3.1690     0.0000     1.1930 ha         1 4UQ       0.151500
     53 H11          1.9410     0.0000    -0.9380 ha         1 4UQ       0.157500
     54 H12          4.6830     2.4950    -1.7400 h1         1 4UQ       0.096700
     55 H13          6.6290     2.4960     3.7770 ha         1 4UQ       0.176000
     56 H14          5.7390     1.4200     5.9350 ha         1 4UQ       0.119000
     57 H15          1.7420    -0.5280     4.3800 hn         1 4UQ       0.491800
     58 H16         -1.7790    -0.0000     1.2160 ha         1 4UQ       0.157500
     59 H17          4.7810    -0.0020     7.3950 hn         1 4UQ       0.474800
     60 H18          3.9420     1.3940     7.5280 hn         1 4UQ       0.474800
     61 H19          3.6970     2.6970     0.5100 h1         1 4UQ       0.071200
     62 H20          4.4690     1.1140     0.3070 h1         1 4UQ       0.071200
     63 H21          6.1180     4.5290    -1.6480 hc         1 4UQ       0.068700
     64 H22          4.6500     4.7070    -0.6700 hc         1 4UQ       0.068700
     65 H23          6.6050     5.5070     0.5900 hc         1 4UQ       0.065700
     66 H24          7.4070     3.9420     0.3620 hc         1 4UQ       0.065700
     67 H25          6.3460     4.0590     2.5860 h1         1 4UQ       0.052700
     68 H26          4.7820     4.3970     1.8250 h1         1 4UQ       0.052700
     69 H27          7.0420     1.5340    -0.2870 hn         1 4UQ       0.321500
     70 H28          8.4190     1.3510    -4.6250 ha         1 4UQ       0.138000
     71 H29         10.5870     0.2180    -4.9110 ha         1 4UQ       0.142000
     72 H30         10.7790    -0.5080    -0.7060 ha         1 4UQ       0.142000
     73 H31          8.6940     0.7620    -0.3820 ha         1 4UQ       0.138000
     74 H32         14.1730    -0.6660    -2.4750 hc         1 4UQ       0.039700
     75 H33         13.0330    -0.3980    -1.1500 hc         1 4UQ       0.039700
     76 H34         13.2010     0.8110    -2.4300 hc         1 4UQ       0.039700
     77 H35         11.0580    -2.8190    -2.9440 hc         1 4UQ       0.039700
     78 H36         11.8930    -2.3980    -1.4420 hc         1 4UQ       0.039700
     79 H37         12.8170    -2.9690    -2.8380 hc         1 4UQ       0.039700
     80 H38         11.7110    -1.4440    -5.0640 hc         1 4UQ       0.039700
     81 H39         12.5940     0.0730    -4.8420 hc         1 4UQ       0.039700
     82 H40         13.4250    -1.4740    -4.6290 hc         1 4UQ       0.039700
     83 H243         3.2960    -0.0080     8.0760 hn         1 4UQ       0.474800
     84 C8           3.3150     0.1970     6.1590 c          1 4UQ       0.519700
@<TRIPOS>BOND
     1    42    39 1   
     2    40    39 1   
     3    39    41 1   
     4    39    36 1   
     5    36    37 ar  
     6    36    35 ar  
     7    37    38 ar  
     8    24     5 1   
     9    24     6 1   
    10    35    34 ar  
    11    38    10 ar  
    12     5     4 1   
    13     4    22 1   
    14     6     7 1   
    15    34    10 ar  
    16    10    32 1   
    17     7    22 1   
    18    22     2 1   
    19    32    31 1   
    20    32    33 2   
    21    31    11 1   
    22     2    23 2   
    23     2     1 1   
    24    28    11 1   
    25    28    29 1   
    26    11    27 1   
    27     1    21 ar  
    28     1     9 ar  
    29    21     3 ar  
    30    27    12 1   
    31    29    30 1   
    32     9     8 ar  
    33     3    20 ar  
    34    30    12 1   
    35    12    14 1   
    36     8    20 ar  
    37    20    19 1   
    38    13    14 ar  
    39    13    18 ar  
    40    14    15 ar  
    41    19    18 1   
    42    18    17 ar  
    43    15    16 ar  
    44    17    16 ar  
    45    17    84 1   
    46    26    84 2   
    47    84    25 1   
    48     3    43 1   
    49     4    44 1   
    50     4    45 1   
    51     5    46 1   
    52     5    47 1   
    53     6    48 1   
    54     6    49 1   
    55     7    50 1   
    56     7    51 1   
    57     8    52 1   
    58     9    53 1   
    59    11    54 1   
    60    15    55 1   
    61    16    56 1   
    62    19    57 1   
    63    21    58 1   
    64    25    59 1   
    65    25    60 1   
    66    27    61 1   
    67    27    62 1   
    68    28    63 1   
    69    28    64 1   
    70    29    65 1   
    71    29    66 1   
    72    30    67 1   
    73    30    68 1   
    74    31    69 1   
    75    34    70 1   
    76    35    71 1   
    77    37    72 1   
    78    38    73 1   
    79    40    74 1   
    80    40    75 1   
    81    40    76 1   
    82    41    77 1   
    83    41    78 1   
    84    41    79 1   
    85    42    80 1   
    86    42    81 1   
    87    42    82 1   
    88    83    25 1   
@<TRIPOS>SUBSTRUCTURE
     1 4UQ         1 TEMP              0 ****  ****    0 ROOT
