@<TRIPOS>MOLECULE
molecule
   56    60     1     0     0
SMALL
bcc


@<TRIPOS>ATOM
      1 C13          0.0000     0.0000     0.0000 ca         1 4US      -0.069000
      2 C18          6.0660     2.5160     1.6380 c3         1 4US       0.146800
      3 C17          3.9640     3.3070     2.5530 c3         1 4US       0.146800
      4 C16          3.4930     1.8770     2.8390 c3         1 4US       0.105000
      5 C15         -3.2240    -0.0010    -0.7000 cp         1 4US      -0.088000
      6 C19          5.6800     1.0530     1.8850 c3         1 4US       0.105000
      7 C20          5.9080     4.7500     2.5560 c3         1 4US       0.150100
      8 C21         -3.7000     1.0860    -1.4330 ca         1 4US      -0.096000
      9 C22         -3.6210     1.0720    -2.8110 ca         1 4US      -0.122000
     10 C23         -3.0730    -0.0160    -3.4660 ca         1 4US      -0.093000
     11 C24         -2.5990    -1.0980    -2.7450 ca         1 4US      -0.118000
     12 C11          2.0700     0.0000     1.2080 ca         1 4US      -0.085600
     13 C12          1.3640     0.0000     0.0000 ca         1 4US      -0.092000
     14 C1          -2.2090     0.0180     2.9470 ca         1 4US       0.093800
     15 C2          -2.1320     0.0100     1.5480 cq         1 4US      -0.076000
     16 C3          -3.3060     0.0060     0.7790 cp         1 4US       0.116000
     17 C4          -4.5480     0.0100     1.4100 ca         1 4US      -0.143000
     18 C5          -4.6300     0.0180     2.7850 ca         1 4US      -0.080000
     19 C6          -3.4730     0.0220     3.5650 ca         1 4US      -0.261600
     20 C7          -3.5750     0.0310     5.0350 c          1 4US       0.510700
     21 O1          -2.5660     0.0350     5.7140 o          1 4US      -0.476100
     22 N1          -4.7850     0.0360     5.6260 nz         1 4US      -0.674400
     23 N2          -0.9310     0.0190     3.4570 na         1 4US      -0.157300
     24 C8          -0.0040     0.0140     2.4280 ca         1 4US      -0.021200
     25 C9          -0.7000     0.0070     1.2080 cq         1 4US      -0.070000
     26 C10          1.3850     0.0010     2.4210 ca         1 4US      -0.121000
     27 C14          3.5470    -0.0010     1.1980 c          1 4US       0.674700
     28 O2           4.1490    -0.8030     0.5110 o          1 4US      -0.569100
     29 N3           4.2140     0.9590     1.9430 n          1 4US      -0.500800
     30 N4           5.4280     3.3650     2.6530 n3         1 4US      -0.732600
     31 C25         -2.6770    -1.0990    -1.3660 ca         1 4US       0.042400
     32 Cl1         -2.0890    -2.4600    -0.4620 cl         1 4US      -0.084400
     33 H8          -0.5410     0.0000    -0.9390 ha         1 4US       0.153000
     34 H14          7.1420     2.6210     1.7040 h1         1 4US       0.044700
     35 H13          5.7280     2.8160     0.6530 h1         1 4US       0.044700
     36 H12          3.5260     3.9820     3.2780 h1         1 4US       0.044700
     37 H11          3.6590     3.5940     1.5540 h1         1 4US       0.044700
     38 H10          3.7100     1.6230     3.8700 h1         1 4US       0.061700
     39 H9           2.4280     1.8020     2.6560 h1         1 4US       0.061700
     40 H16          6.0520     0.4380     1.0750 h1         1 4US       0.061700
     41 H15          6.1030     0.7200     2.8260 h1         1 4US       0.061700
     42 H18          6.6610     4.8180     1.7810 h1         1 4US       0.038033
     43 H17          5.0780     5.4030     2.3120 h1         1 4US       0.038033
     44 H19          6.3370     5.0510     3.5040 h1         1 4US       0.038033
     45 H20         -4.1290     1.9390    -0.9220 ha         1 4US       0.142000
     46 H21         -3.9900     1.9160    -3.3810 ha         1 4US       0.150000
     47 H22         -3.0120    -0.0200    -4.5470 ha         1 4US       0.153000
     48 H23         -2.1730    -1.9480    -3.2630 ha         1 4US       0.161000
     49 H7           1.9040    -0.0000    -0.9400 ha         1 4US       0.165000
     50 H1          -5.4540     0.0070     0.8160 ha         1 4US       0.165000
     51 H2          -5.6020     0.0210     3.2640 ha         1 4US       0.109000
     52 H3          -4.6710     0.0560     6.6200 hn         1 4US       0.474800
     53 H4          -5.2880    -0.7890     5.3650 hn         1 4US       0.474800
     54 H5          -0.7040     0.0220     4.4310 hn         1 4US       0.323700
     55 H6           1.9330     0.0000     3.3560 ha         1 4US       0.151000
     56 H131        -5.2980     0.8440     5.3310 hn         1 4US       0.474800
@<TRIPOS>BOND
     1    17    18 ar
     2    17    16 ar
     3    18    19 ar
     4     9     8 ar
     5     9    10 ar
     6    22    20 1
     7     8     5 ar
     8    10    11 ar
     9     5    16 1
    10     5    31 ar
    11    16    15 1
    12    19    20 1
    13    19    14 ar
    14    20    21 2
    15    11    31 ar
    16    31    32 1
    17    15    14 2
    18    15    25 1
    19    14    23 1
    20    23    24 1
    21    25     1 1
    22    25    24 2
    23     1    13 ar
    24    24    26 ar
    25    13    12 ar
    26    26    12 ar
    27    12    27 1
    28    27    28 2
    29    27    29 1
    30     4    29 1
    31     4     3 1
    32    29     6 1
    33     3    30 1
    34    30     7 1
    35    30     2 1
    36     6     2 1
    37     1    33 1
    38     2    34 1
    39     2    35 1
    40     3    36 1
    41     3    37 1
    42     4    38 1
    43     4    39 1
    44     6    40 1
    45     6    41 1
    46     7    42 1
    47     7    43 1
    48     7    44 1
    49     8    45 1
    50     9    46 1
    51    10    47 1
    52    11    48 1
    53    13    49 1
    54    17    50 1
    55    18    51 1
    56    22    52 1
    57    22    53 1
    58    23    54 1
    59    26    55 1
    60    56    22 1
@<TRIPOS>SUBSTRUCTURE
     1 4US         1 TEMP              0 ****  ****    0 ROOT
