@<TRIPOS>MOLECULE
4US
   56    60     1     0     0
SMALL
bcc


@<TRIPOS>ATOM
      1 C13          0.0000     0.0000     0.0000 ca         1 4US      -0.056000
      2 C18          6.0660     2.5160     1.6380 c3         1 4US       0.140300
      3 C17          3.9640     3.3070     2.5530 c3         1 4US       0.140300
      4 C16          3.4930     1.8770     2.8390 c3         1 4US       0.044500
      5 C15         -3.2240    -0.0010    -0.7000 cp         1 4US      -0.097000
      6 C19          5.6800     1.0530     1.8850 c3         1 4US       0.044500
      7 C20          5.9080     4.7500     2.5560 c3         1 4US       0.183100
      8 C21         -3.7000     1.0860    -1.4330 ca         1 4US      -0.068000
      9 C22         -3.6210     1.0720    -2.8110 ca         1 4US      -0.093000
     10 C23         -3.0730    -0.0160    -3.4660 ca         1 4US      -0.061000
     11 C24         -2.5990    -1.0980    -2.7450 ca         1 4US      -0.093000
     12 C11          2.0700     0.0000     1.2080 ca         1 4US      -0.100600
     13 C12          1.3640     0.0000     0.0000 ca         1 4US      -0.046000
     14 C1          -2.2090     0.0180     2.9470 ca         1 4US      -0.085200
     15 C2          -2.1320     0.0100     1.5480 cq         1 4US      -0.089000
     16 C3          -3.3060     0.0060     0.7790 cp         1 4US       0.148000
     17 C4          -4.5480     0.0100     1.4100 ca         1 4US      -0.124000
     18 C5          -4.6300     0.0180     2.7850 ca         1 4US      -0.043000
     19 C6          -3.4730     0.0220     3.5650 ca         1 4US      -0.275600
     20 C7          -3.5750     0.0310     5.0350 c          1 4US       0.356700
     21 O1          -2.5660     0.0350     5.7140 o          1 4US      -0.509100
     22 N1          -4.7850     0.0360     5.6260 nz         1 4US       0.207600
     23 N2          -0.9310     0.0190     3.4570 na         1 4US       0.389700
     24 C8          -0.0040     0.0140     2.4280 ca         1 4US      -0.215200
     25 C9          -0.7000     0.0070     1.2080 cq         1 4US      -0.055000
     26 C10          1.3850     0.0010     2.4210 ca         1 4US      -0.077000
     27 C14          3.5470    -0.0010     1.1980 c          1 4US       0.613700
     28 O2           4.1490    -0.8030     0.5110 o          1 4US      -0.607100
     29 N3           4.2140     0.9590     1.9430 n          1 4US      -0.174800
     30 N4           5.4280     3.3650     2.6530 n3         1 4US      -0.545600
     31 C25         -2.6770    -1.0990    -1.3660 ca         1 4US      -0.024600
     32 Cl1         -2.0890    -2.4600    -0.4620 cl         1 4US      -0.000400
     33 H8          -0.5410     0.0000    -0.9390 ha         1 4US       0.126000
     34 H14          7.1420     2.6210     1.7040 h1         1 4US       0.017950
     35 H13          5.7280     2.8160     0.6530 h1         1 4US       0.017950
     36 H12          3.5260     3.9820     3.2780 h1         1 4US       0.017950
     37 H11          3.6590     3.5940     1.5540 h1         1 4US       0.017950
     38 H10          3.7100     1.6230     3.8700 h1         1 4US       0.035450
     39 H9           2.4280     1.8020     2.6560 h1         1 4US       0.035450
     40 H16          6.0520     0.4380     1.0750 h1         1 4US       0.035450
     41 H15          6.1030     0.7200     2.8260 h1         1 4US       0.035450
     42 H18          6.6610     4.8180     1.7810 h1         1 4US       0.006367
     43 H17          5.0780     5.4030     2.3120 h1         1 4US       0.006367
     44 H19          6.3370     5.0510     3.5040 h1         1 4US       0.006367
     45 H20         -4.1290     1.9390    -0.9220 ha         1 4US       0.110000
     46 H21         -3.9900     1.9160    -3.3810 ha         1 4US       0.117000
     47 H22         -3.0120    -0.0200    -4.5470 ha         1 4US       0.118000
     48 H23         -2.1730    -1.9480    -3.2630 ha         1 4US       0.128000
     49 H7           1.9040    -0.0000    -0.9400 ha         1 4US       0.131000
     50 H1          -5.4540     0.0070     0.8160 ha         1 4US       0.134000
     51 H2          -5.6020     0.0210     3.2640 ha         1 4US       0.077000
     52 H3          -4.6710     0.0560     6.6200 hn         1 4US       0.242467
     53 H4          -5.2880    -0.7890     5.3650 hn         1 4US       0.242467
     54 H5          -0.7040     0.0220     4.4310 hn         1 4US       0.144700
     55 H6           1.9330     0.0000     3.3560 ha         1 4US       0.124000
     56 H131        -5.2980     0.8440     5.3310 hn         1 4US       0.242467
@<TRIPOS>BOND
     1     1    13 ar  
     2     1    25 2   
     3     1    33 1   
     4     2     6 1   
     5     2    30 1   
     6     2    34 1   
     7     2    35 1   
     8     3     4 1   
     9     3    30 1   
    10     3    36 1   
    11     3    37 1   
    12     4    29 1   
    13     4    38 1   
    14     4    39 1   
    15     5     8 ar  
    16     5    16 1   
    17     5    31 ar  
    18     6    29 1   
    19     6    40 1   
    20     6    41 1   
    21     7    30 1   
    22     7    42 1   
    23     7    43 1   
    24     7    44 1   
    25     8     9 ar  
    26     8    45 1   
    27     9    10 ar  
    28     9    46 1   
    29    10    11 ar  
    30    10    47 1   
    31    11    31 ar  
    32    11    48 1   
    33    12    13 ar  
    34    12    26 ar  
    35    12    27 1   
    36    13    49 1   
    37    14    15 1   
    38    14    19 ar  
    39    14    23 1   
    40    15    16 2   
    41    15    25 1   
    42    16    17 ar  
    43    17    18 ar  
    44    17    50 1   
    45    18    19 ar  
    46    18    51 1   
    47    19    20 1   
    48    20    21 2   
    49    20    22 1   
    50    22    52 1   
    51    22    53 1   
    52    22    56 1   
    53    23    24 1   
    54    23    54 1   
    55    24    25 1   
    56    24    26 ar  
    57    26    55 1   
    58    27    28 2   
    59    27    29 1   
    60    31    32 1   
@<TRIPOS>SUBSTRUCTURE
     1 4US         1 TEMP              0 ****  ****    0 ROOT
