@<TRIPOS>MOLECULE
molecule
   63    67     1     0     0
SMALL
bcc


@<TRIPOS>ATOM
      1 C10          0.0000     0.0000     0.0000 ca         1 4UT      -0.191600
      2 C17         -4.4260    -0.0200    -4.0730 ca         1 4UT      -0.015000
      3 C20         -8.1910    -0.0120    -4.0680 cp         1 4UT       0.000000
      4 C21         -8.4700    -0.0120    -5.4340 ca         1 4UT      -0.156000
      5 C22         -9.7800    -0.0100    -5.8700 ca         1 4UT      -0.090000
      6 C24        -10.5480    -0.0070    -3.5950 ca         1 4UT       0.140100
      7 C26        -12.8970    -0.0010    -3.2310 c3         1 4UT       0.129700
      8 C28         -6.5210    -0.0150    -2.2140 ca         1 4UT      -0.160000
      9 C01          4.3790    -2.3840     7.5400 c3         1 4UT      -0.095100
     10 N03          2.8850    -1.0630     6.1200 n3         1 4UT      -0.734600
     11 C04          1.9610     0.0770     6.0470 c3         1 4UT       0.160300
     12 C05          1.1590    -0.0020     4.7460 c3         1 4UT       0.164300
     13 N06          2.0830    -0.0020     3.6030 nh         1 4UT      -0.597000
     14 C07          1.3860    -0.0010     2.3990 ca         1 4UT       0.143600
     15 C08          2.0840     0.0000     1.1930 ca         1 4UT      -0.181500
     16 C09          1.3980     0.0000     0.0000 ca         1 4UT      -0.053000
     17 C11         -0.7390    -0.0060    -1.2770 c          1 4UT       0.689700
     18 O12         -0.1320    -0.0100    -2.3300 o          1 4UT      -0.620100
     19 N13         -2.0860    -0.0050    -1.2760 ns         1 4UT      -0.459100
     20 C14         -2.7820    -0.0110    -2.4790 cc         1 4UT       0.084500
     21 N15         -2.2380    -0.0170    -3.7070 na         1 4UT       0.027800
     22 N16         -3.2500    -0.0220    -4.6750 nc         1 4UT      -0.278400
     23 C18         -5.7630    -0.0170    -4.5200 ca         1 4UT      -0.102000
     24 C19         -6.7850    -0.0150    -3.5960 cp         1 4UT      -0.004000
     25 C23        -10.8180    -0.0070    -4.9560 ca         1 4UT      -0.220000
     26 O25        -11.5710     0.0020    -2.7000 os         1 4UT      -0.330900
     27 C27         -9.2370    -0.0030    -3.1480 ca         1 4UT      -0.150000
     28 C29         -5.2560    -0.0080    -1.7330 ca         1 4UT      -0.055000
     29 C30         -4.1660    -0.0120    -2.6260 ca         1 4UT      -0.231000
     30 C31         -0.6970    -0.0010     1.2120 ca         1 4UT      -0.053000
     31 C32         -0.0060    -0.0000     2.4020 ca         1 4UT      -0.181500
     32 C33          3.0070    -1.1420     3.6760 c3         1 4UT       0.164300
     33 C34          3.8090    -1.0630     4.9770 c3         1 4UT       0.160300
     34 H1          -7.6600    -0.0150    -6.1520 ha         1 4UT       0.138000
     35 H2          -9.9950    -0.0100    -6.9320 ha         1 4UT       0.131000
     36 H3         -13.6120     0.0010    -2.4170 h1         1 4UT       0.040700
     37 H4         -13.0420    -0.8880    -3.8360 h1         1 4UT       0.040700
     38 H5         -13.0440     0.8810    -3.8420 h1         1 4UT       0.040700
     39 H6          -7.3510    -0.0200    -1.5180 ha         1 4UT       0.133000
     40 H7           5.3490    -2.2990     7.0650 hc         1 4UT       0.040700
     41 H8           3.8140    -3.1790     7.0690 hc         1 4UT       0.040700
     42 H9           4.5110    -2.6090     8.5920 hc         1 4UT       0.040700
     43 H10          4.3230    -0.2400     7.4020 h1         1 4UT       0.034700
     44 H11          2.9220    -0.9540     8.2120 h1         1 4UT       0.034700
     45 H13          1.2820     0.0450     6.8900 h1         1 4UT       0.045700
     46 H14          2.5260     1.0010     6.0660 h1         1 4UT       0.045700
     47 H15          0.5000     0.8550     4.6760 h1         1 4UT       0.051950
     48 H16          0.5760    -0.9150     4.7370 h1         1 4UT       0.051950
     49 H17          3.1670     0.0000     1.1950 ha         1 4UT       0.146000
     50 H18          1.9400     0.0010    -0.9380 ha         1 4UT       0.141000
     51 H19         -2.5860     0.0010    -0.4090 hn         1 4UT       0.347500
     52 H20         -1.2570    -0.0160    -3.9020 hn         1 4UT       0.365700
     53 H21         -5.9830    -0.1650    -5.5710 ha         1 4UT       0.145000
     54 H22        -11.8440    -0.0050    -5.3040 ha         1 4UT       0.133000
     55 H23         -9.0250    -0.0030    -2.0850 ha         1 4UT       0.147000
     56 H24         -5.0810    -0.0080    -0.6640 ha         1 4UT       0.114000
     57 H25         -1.7800    -0.0000     1.2140 ha         1 4UT       0.141000
     58 H26         -0.5450    -0.0010     3.3410 ha         1 4UT       0.146000
     59 H27          2.4410    -2.0650     3.6570 h1         1 4UT       0.051950
     60 H28          3.6860    -1.1100     2.8330 h1         1 4UT       0.051950
     61 H29          4.4680    -1.9200     5.0470 h1         1 4UT       0.045700
     62 H30          4.3920    -0.1500     4.9860 h1         1 4UT       0.045700
     63 C02          3.6200    -1.0640     7.3910 c3         1 4UT       0.160800
@<TRIPOS>BOND
     1     7    26 1   
     2    25     5 ar  
     3    25     6 ar  
     4     5     4 ar  
     5    26     6 1   
     6     6    27 ar  
     7     4     3 ar  
     8    27     3 ar  
     9     3    24 1   
    10    24    23 ar  
    11    24     8 ar  
    12    23     2 ar  
    13     8    28 ar  
    14     2    22 2   
    15     2    29 ar  
    16    28    29 ar  
    17    22    21 1   
    18    29    20 2   
    19    21    20 1   
    20    20    19 1   
    21    18    17 2   
    22    19    17 1   
    23    17     1 1   
    24     1    16 ar  
    25     1    30 ar  
    26    16    15 ar  
    27    30    31 ar  
    28    15    14 ar  
    29    31    14 ar  
    30    14    13 1   
    31    32    13 1   
    32    32    33 1   
    33    13    12 1   
    34    12    11 1   
    35    33    10 1   
    36    10    11 1   
    37    10    63 1   
    38    63     9 1   
    39     4    34 1   
    40     5    35 1   
    41     7    36 1   
    42     7    37 1   
    43     7    38 1   
    44     8    39 1   
    45     9    40 1   
    46     9    41 1   
    47     9    42 1   
    48    63    43 1   
    49    63    44 1   
    50    11    45 1   
    51    11    46 1   
    52    12    47 1   
    53    12    48 1   
    54    15    49 1   
    55    16    50 1   
    56    19    51 1   
    57    21    52 1   
    58    23    53 1   
    59    25    54 1   
    60    27    55 1   
    61    28    56 1   
    62    30    57 1   
    63    31    58 1   
    64    32    59 1   
    65    32    60 1   
    66    33    61 1   
    67    33    62 1   
@<TRIPOS>SUBSTRUCTURE
     1 4UT         1 TEMP              0 ****  ****    0 ROOT
