@<TRIPOS>MOLECULE
molecule
   53    56     1     0     0
SMALL
bcc


@<TRIPOS>ATOM
      1 C2           0.0000     0.0000     0.0000 ca         1 4UU       0.715900
      2 O34         11.8230    -3.1700     3.2610 o          1 4UU      -0.491000
      3 CAR         11.0520    -3.9520     2.7390 c          1 4UU       0.672300
      4 CAQ         11.3550    -5.3830     2.7320 ce         1 4UU      -0.179200
      5 CAP         12.4900    -5.8350     3.3050 ce         1 4UU      -0.095000
      6 CAK         12.7950    -7.2750     3.2970 ce         1 4UU      -0.081000
      7 CAJ         11.8600    -8.2050     2.6600 ce         1 4UU      -0.029000
      8 CAD         12.0740    -9.5350     2.6170 cf         1 4UU      -0.278200
      9 CAH         13.9380    -7.7150     3.8760 c2         1 4UU      -0.123200
     10 CAS         14.2340    -9.1980     3.8580 c3         1 4UU      -0.162200
     11 CAC         13.2270   -10.1090     3.1910 c          1 4UU       0.582300
     12 OBF         13.4110   -11.3090     3.1460 o          1 4UU      -0.552100
     13 O2P          9.9170    -3.5000     2.1670 os         1 4UU      -0.535500
     14 P            9.7280    -1.9040     2.2570 p5         1 4UU       1.322800
     15 O1P          9.5610    -1.4700     3.7990 o          1 4UU      -0.792000
     16 O3P         10.9150    -1.2340     1.6830 o          1 4UU      -0.792000
     17 C5'          8.0340    -0.1080     1.2350 c3         1 4UU       0.238400
     18 C4'          6.7450    -0.0520     0.4130 c3         1 4UU       0.131100
     19 C3'          6.3820     1.4110     0.0800 c3         1 4UU       0.092100
     20 O3'          6.8120     1.7470    -1.2410 oh         1 4UU      -0.573800
     21 C2'          4.8410     1.4470     0.1730 c3         1 4UU       0.072100
     22 O2'          4.2710     1.8040    -1.0870 oh         1 4UU      -0.568800
     23 O4'          5.6310    -0.5410     1.1910 os         1 4UU      -0.389600
     24 C1'          4.4540    -0.0000     0.5520 c3         1 4UU       0.246800
     25 N9           3.3230    -0.0000     1.4820 na         1 4UU      -0.247000
     26 C4           1.9930     0.0000     1.1440 ca         1 4UU       0.462800
     27 N3           1.3160     0.0000     0.0000 nb         1 4UU      -0.769000
     28 C8           3.3990    -0.0000     2.8430 cd         1 4UU       0.451700
     29 N7           2.2020     0.0010     3.3550 nc         1 4UU      -0.602100
     30 C5           1.2850    -0.0000     2.3570 ca         1 4UU      -0.193200
     31 C6          -0.1200     0.0110     2.3050 ca         1 4UU       0.775200
     32 N1          -0.7090     0.0060     1.1140 nb         1 4UU      -0.826000
     33 N6          -0.8710     0.0250     3.4670 nv         1 4UU      -1.012500
     34 H1          -0.5210    -0.0040    -0.9500 h5         1 4UU       0.055100
     35 H2          10.6680    -6.0800     2.2670 ha         1 4UU       0.131000
     36 H3          13.1770    -5.1380     3.7690 ha         1 4UU       0.163000
     37 H4          10.9610    -7.8080     2.2050 ha         1 4UU       0.144000
     38 H5          11.3460   -10.1750     2.1330 ha         1 4UU       0.148000
     39 H6          14.5080    -7.0570     4.5210 ha         1 4UU       0.148000
     40 H7          15.1850    -9.3370     3.3580 hc         1 4UU       0.081200
     41 H8          14.3420    -9.5240     4.8860 hc         1 4UU       0.081200
     42 H10          7.8700     0.3640     2.1960 h1         1 4UU       0.046200
     43 H11          8.8230     0.4140     0.7060 h1         1 4UU       0.046200
     44 H12          6.8480    -0.6290    -0.4990 h1         1 4UU       0.084700
     45 H13          6.8190     2.0830     0.8090 h1         1 4UU       0.052700
     46 H14          7.0480     2.6590    -1.2730 ho         1 4UU       0.398000
     47 H15          4.5260     2.1360     0.9480 h1         1 4UU       0.049700
     48 H16          3.9440     2.6880    -1.0450 ho         1 4UU       0.399000
     49 H17          4.2160    -0.5690    -0.3390 h2         1 4UU       0.106700
     50 H18          4.3190    -0.0030     3.4150 h5         1 4UU       0.103800
     51 H19         -0.5590    -0.4820     4.2710 hn         1 4UU       0.443800
     52 H20         -1.7290     0.5390     3.5020 hn         1 4UU       0.443800
     53 O5'          8.4150    -1.4710     1.4330 os         1 4UU      -0.596200
@<TRIPOS>BOND
     1    16    14 1
     2     2     3 2
     3     7     8 2
     4     7     6 1
     5     8    11 1
     6     5     6 1
     7     5     4 2
     8     6     9 2
     9    33    31 1
    10    32    31 ar
    11    32     1 ar
    12     3     4 1
    13     3    13 1
    14    11    12 2
    15    11    10 1
    16    31    30 ar
    17     1    27 ar
    18     9    10 1
    19    30    29 1
    20    30    26 ar
    21    27    26 ar
    22    29    28 2
    23    26    25 1
    24    23    24 1
    25    23    18 1
    26    28    25 1
    27    25    24 1
    28    14    13 1
    29    14    53 1
    30    14    15 1
    31    53    17 1
    32    24    21 1
    33    18    17 1
    34    18    19 1
    35    21    22 1
    36    21    19 1
    37    19    20 1
    38     1    34 1
    39     4    35 1
    40     5    36 1
    41     7    37 1
    42     8    38 1
    43     9    39 1
    44    10    40 1
    45    10    41 1
    46    17    42 1
    47    17    43 1
    48    18    44 1
    49    19    45 1
    50    20    46 1
    51    21    47 1
    52    22    48 1
    53    24    49 1
    54    28    50 1
    55    33    51 1
    56    33    52 1
@<TRIPOS>SUBSTRUCTURE
     1 4UU         1 TEMP              0 ****  ****    0 ROOT
