@<TRIPOS>MOLECULE
4UU
   53    58     1     0     0
SMALL
bcc


@<TRIPOS>ATOM
      1 C2           0.0000     0.0000     0.0000 c2         1 4UU      -0.043000
      2 O34         11.8230    -3.1700     3.2610 o          1 4UU      -0.372000
      3 CAR         11.0520    -3.9520     2.7390 c3         1 4UU       0.542000
      4 CAQ         11.3550    -5.3830     2.7320 c2         1 4UU      -0.138000
      5 CAP         12.4900    -5.8350     3.3050 c2         1 4UU      -0.007000
      6 CAK         12.7950    -7.2750     3.2970 c3         1 4UU      -0.028000
      7 CAJ         11.8600    -8.2050     2.6600 c2         1 4UU       0.004000
      8 CAD         12.0740    -9.5350     2.6170 c2         1 4UU      -0.238000
      9 CAH         13.9380    -7.7150     3.8760 c2         1 4UU      -0.232000
     10 CAS         14.2340    -9.1980     3.8580 c3         1 4UU      -0.099000
     11 CAC         13.2270   -10.1090     3.1910 c2         1 4UU       0.318000
     12 OBF         13.4110   -11.3090     3.1460 o          1 4UU      -0.353000
     13 O2P          9.9170    -3.5000     2.1670 os         1 4UU      -0.603000
     14 P            9.7280    -1.9040     2.2570 p5         1 4UU       1.386000
     15 O1P          9.5610    -1.4700     3.7990 o          1 4UU      -0.631000
     16 O3P         10.9150    -1.2340     1.6830 o          1 4UU      -0.631000
     17 C5'          8.0340    -0.1080     1.2350 c3         1 4UU       0.168000
     18 C4'          6.7450    -0.0520     0.4130 c3         1 4UU       0.035000
     19 C3'          6.3820     1.4110     0.0800 c3         1 4UU       0.021000
     20 O3'          6.8120     1.7470    -1.2410 oh         1 4UU      -0.282000
     21 C2'          4.8410     1.4470     0.1730 c3         1 4UU       0.008000
     22 O2'          4.2710     1.8040    -1.0870 oh         1 4UU      -0.274000
     23 O4'          5.6310    -0.5410     1.1910 os         1 4UU      -0.231000
     24 C1'          4.4540    -0.0000     0.5520 c3         1 4UU       0.043000
     25 N9           3.3230    -0.0000     1.4820 na         1 4UU       0.296000
     26 C4           1.9930     0.0000     1.1440 c2         1 4UU      -0.169000
     27 N3           1.3160     0.0000     0.0000 n2         1 4UU      -0.074000
     28 C8           3.3990    -0.0000     2.8430 c2         1 4UU      -0.164000
     29 N7           2.2020     0.0010     3.3550 n2         1 4UU      -0.087000
     30 C5           1.2850    -0.0000     2.3570 c2         1 4UU      -0.188000
     31 C6          -0.1200     0.0110     2.3050 c2         1 4UU       0.065000
     32 N1          -0.7090     0.0060     1.1140 n2         1 4UU      -0.143000
     33 N6          -0.8710     0.0250     3.4670 nv         1 4UU      -0.042000
     34 H1          -0.5210    -0.0040    -0.9500 h5         1 4UU       0.131000
     35 H2          10.9630    -4.8450     3.5870 DU         1 4UU       0.050000
     36 H3          12.0390    -6.5590     3.9720 DU         1 4UU       0.050000
     37 H4          10.9610    -7.8080     2.2050 ha         1 4UU       0.117000
     38 H5          11.3460   -10.1750     2.1330 ha         1 4UU       0.123000
     39 H6          14.5070    -7.0570     4.5210 ha         1 4UU       0.128000
     40 H7          15.1850    -9.3370     3.3580 hc         1 4UU       0.077500
     41 H8          14.3420    -9.5240     4.8860 hc         1 4UU       0.077500
     42 H10          8.8230     0.4140     0.7060 h1         1 4UU       0.033000
     43 H11          7.8700     0.3640     2.1960 h1         1 4UU       0.033000
     44 H12          6.8480    -0.6290    -0.4990 h1         1 4UU       0.084000
     45 H13          6.8190     2.0830     0.8090 h1         1 4UU       0.057000
     46 H14          7.3190     2.5410    -1.2150 ho         1 4UU       0.182000
     47 H15          4.5260     2.1360     0.9480 h1         1 4UU       0.050000
     48 H16          3.9620     2.6940    -1.0510 ho         1 4UU       0.183000
     49 H17          4.2160    -0.5690    -0.3390 h2         1 4UU       0.105000
     50 H18          4.3190    -0.0010     3.4150 h5         1 4UU       0.183000
     51 H19         -1.1500     0.8970     3.8720 hn         1 4UU       0.072000
     52 H20         -1.1600    -0.8360     3.8870 hn         1 4UU       0.072000
     53 O5'          8.4150    -1.4710     1.4330 os         1 4UU      -0.665000
@<TRIPOS>BOND
     1     1    27 1   
     2     1    32 1   
     3     1    34 1   
     4     2     3 1   
     5     3     4 1   
     6     3    13 1   
     7     3    35 1   
     8     4     5 1   
     9     4    35 1   
    10     5     6 1   
    11     5    36 1   
    12     6     7 1   
    13     6     9 1   
    14     6    36 1   
    15     7     8 1   
    16     7    37 1   
    17     8    11 1   
    18     8    38 1   
    19     9    10 1   
    20     9    39 1   
    21    10    11 1   
    22    10    40 1   
    23    10    41 1   
    24    11    12 1   
    25    13    14 1   
    26    14    15 1   
    27    14    16 1   
    28    14    53 1   
    29    17    18 1   
    30    17    42 1   
    31    17    43 1   
    32    17    53 1   
    33    18    19 1   
    34    18    23 1   
    35    18    44 1   
    36    19    20 1   
    37    19    21 1   
    38    19    45 1   
    39    20    46 1   
    40    21    22 1   
    41    21    24 1   
    42    21    47 1   
    43    22    48 1   
    44    23    24 1   
    45    24    25 1   
    46    24    49 1   
    47    25    26 1   
    48    25    28 1   
    49    26    27 1   
    50    26    30 1   
    51    28    29 1   
    52    28    50 1   
    53    29    30 1   
    54    30    31 1   
    55    31    32 1   
    56    31    33 1   
    57    33    51 1   
    58    33    52 1   
@<TRIPOS>SUBSTRUCTURE
     1 4UU         1 TEMP              0 ****  ****    0 ROOT
