@<TRIPOS>MOLECULE
molecule
   52    55     1     0     0
SMALL
bcc


@<TRIPOS>ATOM
      1 O1P          0.0000     0.0000     0.0000 o          1 4UV      -0.790000
      2 P            1.6110     0.0000     0.0000 p5         1 4UV       1.325800
      3 O3P          2.1030     0.0000     1.3960 o          1 4UV      -0.790000
      4 O2P          2.1480    -1.3150    -0.7580 os         1 4UV      -0.540500
      5 CAR          1.8730    -2.5060    -0.1880 c          1 4UV       0.677300
      6 CAQ          2.3300    -3.7480    -0.8230 ce         1 4UV      -0.153200
      7 CAP          2.0550    -4.9400    -0.2520 cf         1 4UV      -0.113000
      8 CAK          2.5140    -6.1830    -0.8870 cd         1 4UV      -0.005000
      9 CAH          3.2710    -6.1120    -2.1450 cd         1 4UV      -0.069000
     10 CAS          3.4910    -7.2050    -2.9010 cc         1 4UV      -0.242200
     11 CAC          2.9540    -8.5010    -2.4410 c          1 4UV       0.474300
     12 OBF          2.7330    -9.4170    -3.2060 o          1 4UV      -0.475100
     13 CAD          2.6960    -8.6190    -0.9580 c          1 4UV       0.476300
     14 O35          2.8700    -9.6590    -0.3540 o          1 4UV      -0.473100
     15 CAJ          2.2290    -7.3930    -0.2900 cc         1 4UV      -0.232200
     16 O34          1.2450    -2.5520     0.8530 o          1 4UV      -0.489000
     17 O5'          2.1480     1.3140    -0.7590 os         1 4UV      -0.596200
     18 C5'          1.9290     2.6390    -0.2700 c3         1 4UV       0.238400
     19 C4'          2.5680     3.6470    -1.2280 c3         1 4UV       0.122100
     20 O4'          1.8400     3.6880    -2.4740 os         1 4UV      -0.390600
     21 C1'          2.1840     4.9560    -3.0750 c3         1 4UV       0.246800
     22 C2'          2.1950     5.9590    -1.8990 c3         1 4UV       0.083100
     23 O2'          3.2470     6.9120    -2.0640 oh         1 4UV      -0.566800
     24 C3'          2.4540     5.0780    -0.6570 c3         1 4UV       0.090100
     25 O3'          3.6730     5.4600    -0.0160 oh         1 4UV      -0.574800
     26 N9           1.1760     5.3420    -4.0650 na         1 4UV      -0.251000
     27 C8          -0.1190     4.9190    -4.1030 cd         1 4UV       0.461700
     28 N7          -0.7330     5.4600    -5.1160 nc         1 4UV      -0.596100
     29 C5           0.1270     6.2610    -5.7890 ca         1 4UV      -0.153200
     30 C4           1.3610     6.2000    -5.1190 ca         1 4UV       0.440800
     31 C6           0.0320     7.0760    -6.9300 ca         1 4UV       0.763200
     32 N6          -1.1590     7.1820    -7.6270 nv         1 4UV      -1.072500
     33 N1           1.1120     7.7450    -7.3230 nb         1 4UV      -0.781000
     34 C2           2.2510     7.6510    -6.6630 ca         1 4UV       0.687900
     35 N3           2.3860     6.9060    -5.5860 nb         1 4UV      -0.740000
     36 H2           2.8890    -3.7070    -1.7510 ha         1 4UV       0.132000
     37 H3           1.4970    -4.9810     0.6760 ha         1 4UV       0.171000
     38 H4           3.6640    -5.1560    -2.4720 ha         1 4UV       0.151000
     39 H5           3.8510    -7.0990    -3.9170 ha         1 4UV       0.158000
     40 H6           1.4710    -7.4520     0.4820 ha         1 4UV       0.168000
     41 H7           0.8650     2.8280    -0.2040 h1         1 4UV       0.045200
     42 H8           2.3760     2.7400     0.7110 h1         1 4UV       0.045200
     43 H9           3.6070     3.3980    -1.4090 h1         1 4UV       0.084700
     44 H10          3.1660     4.9010    -3.5290 h2         1 4UV       0.106700
     45 H11          1.2360     6.4540    -1.8170 h1         1 4UV       0.049700
     46 H12          2.9410     7.7650    -1.8070 ho         1 4UV       0.400000
     47 H13          1.6200     5.1430     0.0320 h1         1 4UV       0.052700
     48 H14          3.4860     5.7770     0.8520 ho         1 4UV       0.400000
     49 H15         -0.5710     4.2340    -3.3960 h5         1 4UV       0.104800
     50 H16         -1.8160     7.8990    -7.3900 hn         1 4UV       0.439800
     51 H17         -1.3500     6.5600    -8.3880 hn         1 4UV       0.439800
     52 H18          3.1060     8.2130    -7.0180 h5         1 4UV       0.056100
@<TRIPOS>BOND
     1    14    13 2   
     2     3     2 1   
     3    16     5 2   
     4    13    15 1   
     5    13    11 1   
     6    15     8 2   
     7    32    31 1   
     8    12    11 2   
     9     7     8 1   
    10     7     6 2   
    11    11    10 1   
    12     8     9 1   
    13    33    31 ar  
    14    33    34 ar  
    15     5     6 1   
    16     5     4 1   
    17    31    29 ar  
    18    34    35 ar  
    19    29    28 1   
    20    29    30 ar  
    21    10     9 2   
    22    28    27 2   
    23    35    30 ar  
    24    30    26 1   
    25    27    26 1   
    26    20    21 1   
    27    20    19 1   
    28    26    21 1   
    29     2     4 1   
    30     2    17 1   
    31     2     1 1   
    32    17    18 1   
    33    21    22 1   
    34    19    18 1   
    35    19    24 1   
    36    22    23 1   
    37    22    24 1   
    38    24    25 1   
    39     6    36 1   
    40     7    37 1   
    41     9    38 1   
    42    10    39 1   
    43    15    40 1   
    44    18    41 1   
    45    18    42 1   
    46    19    43 1   
    47    21    44 1   
    48    22    45 1   
    49    23    46 1   
    50    24    47 1   
    51    25    48 1   
    52    27    49 1   
    53    32    50 1   
    54    32    51 1   
    55    34    52 1   
@<TRIPOS>SUBSTRUCTURE
     1 4UV         1 TEMP              0 ****  ****    0 ROOT
