@<TRIPOS>MOLECULE
4UV
   52    57     1     0     0
SMALL
bcc


@<TRIPOS>ATOM
      1 O1P          0.0000     0.0000     0.0000 o          1 4UV      -0.627000
      2 P            1.6110     0.0000     0.0000 p5         1 4UV       1.388000
      3 O3P          2.1030     0.0000     1.3960 o          1 4UV      -0.627000
      4 O2P          2.1480    -1.3150    -0.7580 os         1 4UV      -0.604000
      5 CAR          1.8730    -2.5060    -0.1880 c3         1 4UV       0.541000
      6 CAQ          2.3300    -3.7480    -0.8230 c2         1 4UV      -0.135000
      7 CAP          2.0550    -4.9400    -0.2520 c2         1 4UV       0.028000
      8 CAK          2.5140    -6.1830    -0.8870 c3         1 4UV       0.068000
      9 CAH          3.2710    -6.1120    -2.1450 c2         1 4UV      -0.052000
     10 CAS          3.4910    -7.2050    -2.9010 c2         1 4UV      -0.195000
     11 CAC          2.9540    -8.5010    -2.4410 c2         1 4UV       0.256000
     12 OBF          2.7330    -9.4170    -3.2060 o          1 4UV      -0.271000
     13 CAD          2.6960    -8.6190    -0.9580 c2         1 4UV       0.286000
     14 O35          2.8700    -9.6590    -0.3540 o          1 4UV      -0.291000
     15 CAJ          2.2290    -7.3930    -0.2900 c2         1 4UV      -0.351000
     16 O34          1.2450    -2.5520     0.8530 o          1 4UV      -0.368000
     17 O5'          2.1480     1.3140    -0.7590 os         1 4UV      -0.665000
     18 C5'          1.9290     2.6390    -0.2700 c3         1 4UV       0.168000
     19 C4'          2.5680     3.6470    -1.2280 c3         1 4UV       0.035000
     20 O4'          1.8400     3.6880    -2.4740 os         1 4UV      -0.232000
     21 C1'          2.1840     4.9560    -3.0750 c3         1 4UV       0.044000
     22 C2'          2.1950     5.9590    -1.8990 c3         1 4UV       0.009000
     23 O2'          3.2470     6.9120    -2.0640 oh         1 4UV      -0.274000
     24 C3'          2.4540     5.0780    -0.6570 c3         1 4UV       0.021000
     25 O3'          3.6730     5.4600    -0.0160 oh         1 4UV      -0.282000
     26 N9           1.1760     5.3420    -4.0650 na         1 4UV       0.296000
     27 C8          -0.1190     4.9190    -4.1030 c2         1 4UV      -0.165000
     28 N7          -0.7330     5.4600    -5.1160 n2         1 4UV      -0.086000
     29 C5           0.1270     6.2610    -5.7890 c2         1 4UV      -0.188000
     30 C4           1.3610     6.2000    -5.1190 c2         1 4UV      -0.169000
     31 C6           0.0320     7.0760    -6.9300 c2         1 4UV       0.066000
     32 N6          -1.1590     7.1820    -7.6270 nv         1 4UV      -0.042000
     33 N1           1.1120     7.7450    -7.3230 n2         1 4UV      -0.142000
     34 C2           2.2510     7.6510    -6.6630 c2         1 4UV      -0.042000
     35 N3           2.3860     6.9060    -5.5860 n2         1 4UV      -0.075000
     36 H2           1.3150    -3.3730    -0.8740 DU         1 4UV       0.062000
     37 H3           1.5750    -5.4040    -1.1050 DU         1 4UV       0.034000
     38 H4           3.6640    -5.1560    -2.4720 ha         1 4UV       0.125000
     39 H5           4.2250    -7.1750    -3.6970 ha         1 4UV       0.126000
     40 H6           1.4720    -7.4520     0.4820 ha         1 4UV       0.146000
     41 H7           2.3760     2.7400     0.7110 h1         1 4UV       0.033500
     42 H8           0.8650     2.8280    -0.2040 h1         1 4UV       0.033500
     43 H9           3.6070     3.3980    -1.4090 h1         1 4UV       0.084000
     44 H10          3.1660     4.9010    -3.5290 h2         1 4UV       0.105000
     45 H11          1.2360     6.4540    -1.8170 h1         1 4UV       0.051000
     46 H12          2.9410     7.7650    -1.8070 ho         1 4UV       0.183000
     47 H13          1.6200     5.1430     0.0320 h1         1 4UV       0.057000
     48 H14          3.4860     5.7770     0.8520 ho         1 4UV       0.183000
     49 H15         -0.5710     4.2340    -3.3960 h5         1 4UV       0.183000
     50 H16         -1.8160     7.8990    -7.3900 hn         1 4UV       0.072000
     51 H17         -1.3500     6.5600    -8.3880 hn         1 4UV       0.072000
     52 H18          3.1060     8.2130    -7.0180 h5         1 4UV       0.131000
@<TRIPOS>BOND
     1     1     2 1   
     2     2     3 1   
     3     2     4 1   
     4     2    17 1   
     5     4     5 1   
     6     5     6 1   
     7     5    16 1   
     8     5    36 1   
     9     6     7 1   
    10     6    36 1   
    11     7     8 1   
    12     7    37 1   
    13     8     9 1   
    14     8    15 1   
    15     8    37 1   
    16     9    10 1   
    17     9    38 1   
    18    10    11 1   
    19    10    39 1   
    20    11    12 1   
    21    11    13 1   
    22    13    14 1   
    23    13    15 1   
    24    15    40 1   
    25    17    18 1   
    26    18    19 1   
    27    18    41 1   
    28    18    42 1   
    29    19    20 1   
    30    19    24 1   
    31    19    43 1   
    32    20    21 1   
    33    21    22 1   
    34    21    26 1   
    35    21    44 1   
    36    22    23 1   
    37    22    24 1   
    38    22    45 1   
    39    23    46 1   
    40    24    25 1   
    41    24    47 1   
    42    25    48 1   
    43    26    27 1   
    44    26    30 1   
    45    27    28 1   
    46    27    49 1   
    47    28    29 1   
    48    29    30 1   
    49    29    31 1   
    50    30    35 1   
    51    31    32 1   
    52    31    33 1   
    53    32    50 1   
    54    32    51 1   
    55    33    34 1   
    56    34    35 1   
    57    34    52 1   
@<TRIPOS>SUBSTRUCTURE
     1 4UV         1 TEMP              0 ****  ****    0 ROOT
