@<TRIPOS>MOLECULE
4UW
   57    62     1     0     0
SMALL
bcc


@<TRIPOS>ATOM
      1 N1           0.0000     0.0000     0.0000 n2         1 4UW      -0.229000
      2 C2           1.3210     0.0000     0.0000 c2         1 4UW       0.013000
      3 C6          -0.6880    -0.0010     1.1360 c2         1 4UW       0.067000
      4 C5           0.0210    -0.0010     2.3490 c2         1 4UW      -0.250000
      5 C4           1.4250     0.0000     2.2960 c2         1 4UW      -0.121000
      6 C8           0.7440    -0.0010     4.3930 c2         1 4UW      -0.165000
      7 O3P          6.1730    -1.8180     9.7640 o          1 4UW      -0.629500
      8 P            5.0120    -2.4440     9.0930 p5         1 4UW       1.385000
      9 O1P          3.6620    -2.0460     9.8730 o          1 4UW      -0.629500
     10 O2P          5.1790    -4.0460     9.0910 os         1 4UW      -0.605000
     11 CAR          5.3610    -4.5800    10.3170 c3         1 4UW       0.541000
     12 CAQ          5.5270    -6.0240    10.4670 c2         1 4UW      -0.134000
     13 CAP          5.7090    -6.5600    11.6930 c2         1 4UW      -0.006000
     14 CAK          5.8760    -8.0140    11.8440 c3         1 4UW       0.020000
     15 CAH          6.0590    -8.5360    13.0800 c2         1 4UW      -0.271000
     16 CAS          6.2280   -10.0330    13.2180 c3         1 4UW      -0.081000
     17 CAC          6.1840   -10.8670    11.9580 c2         1 4UW       0.324000
     18 OBF          6.3130   -12.0730    12.0060 o          1 4UW      -0.326000
     19 CAD          5.9860   -10.2090    10.7180 c2         1 4UW      -0.016000
     20 O35          5.9430   -10.9410     9.5730 os         1 4UW      -0.168000
     21 C36          5.7420   -10.2250     8.3520 c3         1 4UW       0.044000
     22 CAJ          5.8350    -8.8690    10.6560 c2         1 4UW      -0.170000
     23 O34          5.3890    -3.8590    11.2960 o          1 4UW      -0.374000
     24 O5'          4.9330    -1.9120     7.5760 os         1 4UW      -0.667000
     25 C4'          4.8170    -0.3680     5.7200 c3         1 4UW       0.030000
     26 O4'          3.5340    -0.8130     5.2280 os         1 4UW      -0.230000
     27 C1'          3.3820    -0.1860     3.9370 c3         1 4UW       0.060000
     28 C2'          3.9290     1.2470     4.1270 c3         1 4UW       0.005000
     29 O2'          4.5780     1.6970     2.9360 oh         1 4UW      -0.292000
     30 C3'          4.8950     1.1240     5.3270 c3         1 4UW       0.006000
     31 O3'          6.2250     1.4700     4.9360 oh         1 4UW      -0.305000
     32 N9           1.8520    -0.0010     3.6000 na         1 4UW       0.257000
     33 N7          -0.3290    -0.0010     3.6570 n2         1 4UW      -0.092000
     34 N6          -2.0720     0.0000     1.1240 nv         1 4UW       0.106000
     35 N3           2.0270     0.0000     1.1110 n2         1 4UW      -0.143000
     36 H1           1.8420     0.0010    -0.9490 h5         1 4UW       0.125000
     37 H2           0.7550    -0.0030     5.4770 h5         1 4UW       0.175000
     38 H4           6.3400    -5.3090    10.4970 DU         1 4UW       0.044000
     39 H5           6.6270    -7.0950    11.4830 DU         1 4UW       0.051000
     40 H6           6.2880    -7.8850    13.9150 ha         1 4UW       0.130000
     41 H7           5.4470   -10.3920    13.8770 hc         1 4UW       0.077000
     42 H8           7.1840   -10.2120    13.6970 hc         1 4UW       0.077000
     43 H9           6.5510    -9.5180     8.2110 h1         1 4UW       0.040000
     44 H10          5.7240   -10.9220     7.5230 h1         1 4UW       0.040000
     45 H11          4.8000    -9.6920     8.3970 h1         1 4UW       0.040000
     46 H12          5.6860    -8.4070     9.6870 ha         1 4UW       0.140000
     47 H13          4.0140    -0.0700     7.6900 h1         1 4UW       0.034500
     48 H14          5.7810    -0.0340     7.6110 h1         1 4UW       0.034500
     49 H15          5.6150    -0.9240     5.2410 h1         1 4UW       0.076000
     50 H16          3.9660    -0.7140     3.1930 h2         1 4UW       0.101000
     51 H17          3.1140     1.9080     4.3950 h1         1 4UW       0.089000
     52 H18          5.3060     1.1300     2.7410 ho         1 4UW       0.203000
     53 H19          4.5600     1.7470     6.1460 h1         1 4UW       0.066000
     54 H20          6.5040     2.2350     5.4130 ho         1 4UW       0.197000
     55 H21         -2.5800     0.0030     1.9870 hn         1 4UW       0.068000
     56 H22         -2.5660    -0.0020     0.2540 hn         1 4UW       0.068000
     57 C5'          4.8890    -0.5230     7.2400 c3         1 4UW       0.169000
@<TRIPOS>BOND
     1     1     2 1   
     2     1     3 1   
     3     2    35 1   
     4     2    36 1   
     5     3     4 1   
     6     3    34 1   
     7     4     5 1   
     8     4    33 1   
     9     5    32 1   
    10     5    35 1   
    11     6    32 1   
    12     6    33 1   
    13     6    37 1   
    14     7     8 1   
    15     8     9 1   
    16     8    10 1   
    17     8    24 1   
    18    10    11 1   
    19    11    12 1   
    20    11    23 1   
    21    11    38 1   
    22    12    13 1   
    23    12    38 1   
    24    13    14 1   
    25    13    39 1   
    26    14    15 1   
    27    14    22 1   
    28    14    39 1   
    29    15    16 1   
    30    15    40 1   
    31    16    17 1   
    32    16    41 1   
    33    16    42 1   
    34    17    18 1   
    35    17    19 1   
    36    19    20 1   
    37    19    22 1   
    38    20    21 1   
    39    21    43 1   
    40    21    44 1   
    41    21    45 1   
    42    22    46 1   
    43    24    57 1   
    44    25    26 1   
    45    25    30 1   
    46    25    49 1   
    47    25    57 1   
    48    26    27 1   
    49    27    28 1   
    50    27    32 1   
    51    27    50 1   
    52    28    29 1   
    53    28    30 1   
    54    28    51 1   
    55    29    52 1   
    56    30    31 1   
    57    30    53 1   
    58    31    54 1   
    59    34    55 1   
    60    34    56 1   
    61    47    57 1   
    62    48    57 1   
@<TRIPOS>SUBSTRUCTURE
     1 4UW         1 TEMP              0 ****  ****    0 ROOT
