@<TRIPOS>MOLECULE
molecule
   57    60     1     0     0
SMALL
bcc


@<TRIPOS>ATOM
      1 N1           0.0000     0.0000     0.0000 nb         1 4UW      -0.845000
      2 C2           1.3210     0.0000     0.0000 ca         1 4UW       0.724900
      3 C6          -0.6880    -0.0010     1.1360 ca         1 4UW       0.780200
      4 C5           0.0210    -0.0010     2.3490 ca         1 4UW      -0.209200
      5 C4           1.4250     0.0000     2.2960 ca         1 4UW       0.457800
      6 C8           0.7440    -0.0010     4.3930 cc         1 4UW       0.453700
      7 O3P          6.1730    -1.8200     9.7650 o          1 4UW      -0.792000
      8 P            5.0120    -2.4440     9.0930 p5         1 4UW       1.323800
      9 O1P          3.6620    -2.0460     9.8730 o          1 4UW      -0.792000
     10 O2P          5.1790    -4.0460     9.0910 os         1 4UW      -0.536500
     11 CAR          5.3610    -4.5800    10.3170 c          1 4UW       0.672300
     12 CAQ          5.5270    -6.0240    10.4670 cf         1 4UW      -0.180200
     13 CAP          5.7090    -6.5600    11.6930 ce         1 4UW      -0.092000
     14 CAK          5.8760    -8.0140    11.8440 ce         1 4UW      -0.039000
     15 CAH          6.0590    -8.5360    13.0800 c2         1 4UW      -0.161200
     16 CAS          6.2280   -10.0330    13.2180 c3         1 4UW      -0.143200
     17 CAC          6.1840   -10.8670    11.9580 c          1 4UW       0.590300
     18 OBF          6.3130   -12.0730    12.0060 o          1 4UW      -0.520100
     19 CAD          5.9860   -10.2090    10.7180 cf         1 4UW       0.000900
     20 O35          5.9430   -10.9410     9.5730 os         1 4UW      -0.309900
     21 C36          5.7420   -10.2250     8.3520 c3         1 4UW       0.121700
     22 CAJ          5.8350    -8.8690    10.6560 ce         1 4UW      -0.175000
     23 O34          5.3890    -3.8590    11.2960 o          1 4UW      -0.492000
     24 O5'          4.9330    -1.9120     7.5760 os         1 4UW      -0.596200
     25 C4'          4.8170    -0.3680     5.7200 c3         1 4UW       0.121100
     26 O4'          3.5340    -0.8130     5.2280 os         1 4UW      -0.388600
     27 C1'          3.3820    -0.1860     3.9370 c3         1 4UW       0.267800
     28 C2'          3.9290     1.2470     4.1270 c3         1 4UW       0.079100
     29 O2'          4.5780     1.6970     2.9360 oh         1 4UW      -0.565800
     30 C3'          4.8950     1.1240     5.3270 c3         1 4UW       0.092100
     31 O3'          6.2250     1.4700     4.9360 oh         1 4UW      -0.575800
     32 N9           1.8520    -0.0010     3.6000 na         1 4UW      -0.266000
     33 N7          -0.3290    -0.0010     3.6570 nd         1 4UW      -0.606100
     34 N6          -2.0720     0.0000     1.1240 nv         1 4UW      -0.993500
     35 N3           2.0270     0.0000     1.1110 nb         1 4UW      -0.780000
     36 H1           1.8420     0.0010    -0.9490 h5         1 4UW       0.054100
     37 H2           0.7550    -0.0020     5.4770 h5         1 4UW       0.096800
     38 H4           5.5030    -6.6660     9.5940 ha         1 4UW       0.129000
     39 H5           5.7330    -5.9180    12.5650 ha         1 4UW       0.163000
     40 H6           5.8790    -7.9280    13.9570 ha         1 4UW       0.149000
     41 H7           5.4480   -10.3920    13.8780 hc         1 4UW       0.082200
     42 H8           7.1840   -10.2120    13.6970 hc         1 4UW       0.082200
     43 H9           6.5470    -9.5120     8.2150 h1         1 4UW       0.044367
     44 H10          4.7960    -9.6980     8.3940 h1         1 4UW       0.044367
     45 H11          5.7310   -10.9210     7.5220 h1         1 4UW       0.044367
     46 H12          5.6860    -8.4070     9.6870 ha         1 4UW       0.150000
     47 H13          5.7810    -0.0330     7.6110 h1         1 4UW       0.045700
     48 H14          4.0140    -0.0700     7.6900 h1         1 4UW       0.045700
     49 H15          5.6150    -0.9240     5.2410 h1         1 4UW       0.083700
     50 H16          3.9660    -0.7140     3.1930 h2         1 4UW       0.122700
     51 H17          3.1140     1.9080     4.3950 h1         1 4UW       0.051700
     52 H18          4.2910     2.5720     2.7330 ho         1 4UW       0.401000
     53 H19          4.5600     1.7470     6.1460 h1         1 4UW       0.054700
     54 H20          6.4920     2.2530     5.3890 ho         1 4UW       0.400000
     55 H21         -2.5790    -0.1820     1.9680 hn         1 4UW       0.445300
     56 H22         -2.5650     0.1500     0.2670 hn         1 4UW       0.445300
     57 C5'          4.8890    -0.5230     7.2400 c3         1 4UW       0.239400
@<TRIPOS>BOND
     1    21    20 1
     2     7     8 1
     3    23    11 2
     4    20    19 1
     5    22    19 2
     6    22    14 1
     7    19    17 1
     8    34     3 1
     9    13    14 1
    10    13    12 2
    11     1     3 ar
    12     1     2 ar
    13    14    15 2
    14    11    12 1
    15    11    10 1
    16     3     4 ar
    17    17    18 2
    18    17    16 1
    19     2    35 ar
    20    15    16 1
    21     4    33 1
    22     4     5 ar
    23    35     5 ar
    24    33     6 2
    25     5    32 1
    26    26    27 1
    27    26    25 1
    28     8    10 1
    29     8    24 1
    30     8     9 1
    31     6    32 1
    32    32    27 1
    33    24    57 1
    34    27    28 1
    35    25    57 1
    36    25    30 1
    37    28    29 1
    38    28    30 1
    39    30    31 1
    40     2    36 1
    41     6    37 1
    42    12    38 1
    43    13    39 1
    44    15    40 1
    45    16    41 1
    46    16    42 1
    47    21    43 1
    48    21    44 1
    49    21    45 1
    50    22    46 1
    51    57    47 1
    52    57    48 1
    53    25    49 1
    54    27    50 1
    55    28    51 1
    56    29    52 1
    57    30    53 1
    58    31    54 1
    59    34    55 1
    60    34    56 1
@<TRIPOS>SUBSTRUCTURE
     1 4UW         1 TEMP              0 ****  ****    0 ROOT
