@<TRIPOS>MOLECULE
4UX
   80    83     1     0     0
SMALL
bcc


@<TRIPOS>ATOM
      1 N1           0.0000     0.0000     0.0000 nv         1 4UX      -0.565200
      2 C2           1.3960     0.0000     0.0000 ca         1 4UX       0.086600
      3 C4           3.4740    -0.0050    -1.1990 ca         1 4UX       0.008500
      4 C6           3.4740     0.0000     1.1970 ca         1 4UX       0.008500
      5 C7           2.0930     0.0000     1.2020 ca         1 4UX      -0.148000
      6 O10          6.3270     0.4190     1.2950 o          1 4UX      -0.590300
      7 N11          6.4160    -1.5750    -0.1570 n3         1 4UX      -0.522500
      8 C13          5.7830    -3.5150     1.1910 c3         1 4UX      -0.080700
      9 C14          6.2280    -4.4050     2.3540 c3         1 4UX      -0.001600
     10 C15          4.3850    -2.9640     1.4750 c3         1 4UX      -0.001600
     11 C16          6.4980    -2.1880    -1.4840 c3         1 4UX       0.217800
     12 C17          7.9300    -2.0740    -2.0110 c3         1 4UX       0.149100
     13 O18          8.8050    -2.8420    -1.1840 oh         1 4UX      -0.587800
     14 C21          9.5090    -2.2820    -5.3250 c          1 4UX       0.674100
     15 O28         13.8190    -1.2740    -6.0330 os         1 4UX      -0.407600
     16 C29         14.1130    -2.6790    -5.8910 c3         1 4UX       0.224400
     17 C30         12.9620    -3.3980    -6.6280 c3         1 4UX       0.069500
     18 C31         12.2390    -2.4940    -7.7540 c3         1 4UX      -0.116700
     19 C3           2.0920    -0.0040    -1.2030 ca         1 4UX      -0.148000
     20 C5           4.1630     0.0000    -0.0010 ca         1 4UX      -0.166500
     21 S8           5.9260    -0.0010    -0.0020 sy         1 4UX       1.049200
     22 O9           6.3260     0.6640    -1.1920 o          1 4UX      -0.590300
     23 C12          6.7660    -2.3530     1.0340 c3         1 4UX       0.216800
     24 C19          7.9890    -2.6020    -3.4460 c3         1 4UX       0.016700
     25 N20          9.3310    -2.3820    -3.9910 ns         1 4UX      -0.162900
     26 O22          8.5560    -2.3750    -6.0720 o          1 4UX      -0.652000
     27 O23         10.7410    -2.0810    -5.8260 os         1 4UX      -0.396900
     28 C24         10.8580    -1.9840    -7.2700 c3         1 4UX       0.164100
     29 C25         10.9120    -0.5050    -7.7270 c3         1 4UX       0.228400
     30 O26         12.2760    -0.1000    -7.5290 os         1 4UX      -0.447600
     31 C27         13.3340    -1.1020    -7.3820 c3         1 4UX       0.412900
     32 C33          6.4110    -4.5850    -5.5570 ca         1 4UX      -0.092500
     33 C34          6.3530    -5.0380    -6.8610 ca         1 4UX      -0.093000
     34 C35          7.4970    -5.5070    -7.4810 ca         1 4UX      -0.099000
     35 C36          8.6980    -5.5210    -6.7960 ca         1 4UX      -0.093000
     36 C37          8.7550    -5.0660    -5.4920 ca         1 4UX      -0.092500
     37 C38          7.6130    -4.5930    -4.8740 ca         1 4UX      -0.073300
     38 H1          -0.5000     0.8600     0.1110 hn         1 4UX       0.278800
     39 H2          -0.5000    -0.8610    -0.0980 hn         1 4UX       0.278800
     40 H3           4.0170    -0.0060    -2.1370 ha         1 4UX       0.122500
     41 H4           4.0180     0.0020     2.1340 ha         1 4UX       0.122500
     42 H5           1.5540    -0.0000     2.1410 ha         1 4UX       0.115000
     43 H6           5.7660    -4.0970     0.2770 hc         1 4UX       0.031700
     44 H7           7.2140    -4.8020     2.1480 hc         1 4UX       0.006367
     45 H8           6.2570    -3.8190     3.2650 hc         1 4UX       0.006367
     46 H9           5.5260    -5.2220     2.4720 hc         1 4UX       0.006367
     47 H10          3.7700    -3.7440     1.9070 hc         1 4UX       0.006367
     48 H11          3.9360    -2.6230     0.5490 hc         1 4UX       0.006367
     49 H12          4.4570    -2.1350     2.1680 hc         1 4UX       0.006367
     50 H13          5.8230    -1.6770    -2.1600 h1         1 4UX       0.033700
     51 H14          6.2200    -3.2330    -1.4170 h1         1 4UX       0.033700
     52 H15          8.2390    -1.0350    -1.9960 h1         1 4UX       0.033700
     53 H16          9.4970    -2.2900    -0.8600 ho         1 4UX       0.395000
     54 H17         14.1200    -2.9570    -4.8440 h1         1 4UX       0.014200
     55 H18         15.0620    -2.9130    -6.3570 h1         1 4UX       0.014200
     56 H19         12.2900    -3.5720    -5.7960 h1         1 4UX       0.033700
     57 H20         12.2530    -2.7720    -8.8010 hc         1 4UX       0.068700
     58 H23          1.5520    -0.0080    -2.1420 ha         1 4UX       0.115000
     59 H24          7.7720    -2.7420     0.9280 h1         1 4UX       0.040200
     60 H25          6.7150    -1.7170     1.9090 h1         1 4UX       0.040200
     61 H26          7.2620    -2.0770    -4.0540 h1         1 4UX       0.067700
     62 H27         10.1080    -2.2540    -3.3720 hn         1 4UX       0.176500
     63 H28         10.0550    -2.5130    -7.7690 h1         1 4UX       0.059700
     64 H29         10.6460    -0.4270    -8.7750 h1         1 4UX       0.018200
     65 H30         10.2500     0.1000    -7.1190 h1         1 4UX       0.018200
     66 H31         14.1720    -0.9080    -8.0410 h2         1 4UX       0.041700
     67 H32          5.5150    -4.2180    -5.0710 ha         1 4UX       0.098000
     68 H33          5.4110    -5.0300    -7.3960 ha         1 4UX       0.096000
     69 H34          7.4520    -5.8630    -8.5030 ha         1 4UX       0.098000
     70 H35          9.5940    -5.8890    -7.2810 ha         1 4UX       0.096000
     71 H36          9.6960    -5.0770    -4.9550 ha         1 4UX       0.098000
     72 H39         12.6190    -6.5010    -6.5750 h1         1 4UX       0.001033
     73 H40         14.2970    -6.2150    -6.0930 h1         1 4UX       0.001033
     74 H41         12.9830    -5.3570    -5.2750 h1         1 4UX       0.001033
     75 C32          7.6750    -4.0990    -3.4520 c3         1 4UX       0.008900
     76 N51         13.4190    -4.6690    -7.2050 n7         1 4UX      -0.577200
     77 C52         13.3230    -5.7570    -6.2230 c3         1 4UX       0.169100
     78 H21          8.4520    -4.6330    -2.9170 hc         1 4UX       0.031700
     79 H22          6.7210    -4.2700    -2.9680 hc         1 4UX       0.031700
     80 H37         12.8600    -4.8930    -8.0050 hn         1 4UX       0.256800
@<TRIPOS>BOND
     1     1     2 1   
     2     1    38 1   
     3     1    39 1   
     4     2     5 ar  
     5     2    19 ar  
     6     3    19 ar  
     7     3    20 ar  
     8     3    40 1   
     9     4     5 ar  
    10     4    20 ar  
    11     4    41 1   
    12     5    42 1   
    13     6    21 2   
    14     7    11 1   
    15     7    21 1   
    16     7    23 1   
    17     8     9 1   
    18     8    10 1   
    19     8    23 1   
    20     8    43 1   
    21     9    44 1   
    22     9    45 1   
    23     9    46 1   
    24    10    47 1   
    25    10    48 1   
    26    10    49 1   
    27    11    12 1   
    28    11    50 1   
    29    11    51 1   
    30    12    13 1   
    31    12    24 1   
    32    12    52 1   
    33    13    53 1   
    34    14    25 1   
    35    14    26 2   
    36    14    27 1   
    37    15    16 1   
    38    15    31 1   
    39    16    17 1   
    40    16    54 1   
    41    16    55 1   
    42    17    18 1   
    43    17    56 1   
    44    17    76 1   
    45    18    28 1   
    46    18    31 1   
    47    18    57 1   
    48    19    58 1   
    49    20    21 1   
    50    21    22 2   
    51    23    59 1   
    52    23    60 1   
    53    24    25 1   
    54    24    61 1   
    55    24    75 1   
    56    25    62 1   
    57    27    28 1   
    58    28    29 1   
    59    28    63 1   
    60    29    30 1   
    61    29    64 1   
    62    29    65 1   
    63    30    31 1   
    64    31    66 1   
    65    32    33 ar  
    66    32    37 ar  
    67    32    67 1   
    68    33    34 ar  
    69    33    68 1   
    70    34    35 ar  
    71    34    69 1   
    72    35    36 ar  
    73    35    70 1   
    74    36    37 ar  
    75    36    71 1   
    76    37    75 1   
    77    72    77 1   
    78    73    77 1   
    79    74    77 1   
    80    75    78 1   
    81    75    79 1   
    82    76    77 1   
    83    76    80 1   
@<TRIPOS>SUBSTRUCTURE
     1 4UX         1 TEMP              0 ****  ****    0 ROOT
