@<TRIPOS>MOLECULE
molecule
   80    83     1     0     0
SMALL
bcc


@<TRIPOS>ATOM
      1 N1           0.0000     0.0000     0.0000 nv         1 4UX      -0.995200
      2 C2           1.3960     0.0000     0.0000 ca         1 4UX       0.222600
      3 C4           3.4740    -0.0050    -1.1990 ca         1 4UX      -0.024000
      4 C6           3.4740     0.0000     1.1970 ca         1 4UX      -0.024000
      5 C7           2.0930     0.0000     1.2020 ca         1 4UX      -0.170000
      6 O10          6.3270     0.4190     1.2950 o          1 4UX      -0.638300
      7 N11          6.4160    -1.5750    -0.1570 n3         1 4UX      -0.813500
      8 C13          5.7830    -3.5150     1.1910 c3         1 4UX      -0.096700
      9 C14          6.2280    -4.4050     2.3540 c3         1 4UX      -0.091100
     10 C15          4.3850    -2.9640     1.4750 c3         1 4UX      -0.091100
     11 C16          6.4980    -2.1880    -1.4840 c3         1 4UX       0.233800
     12 C17          7.9300    -2.0740    -2.0110 c3         1 4UX       0.110100
     13 O18          8.8050    -2.8420    -1.1840 oh         1 4UX      -0.605800
     14 C21          9.5090    -2.2820    -5.3250 c          1 4UX       0.746100
     15 O28         13.8190    -1.2740    -6.0330 os         1 4UX      -0.410600
     16 C29         14.1130    -2.6790    -5.8910 c3         1 4UX       0.146400
     17 C30         12.9620    -3.3980    -6.6280 c3         1 4UX       0.130500
     18 C31         12.2390    -2.4940    -7.7540 c3         1 4UX      -0.140700
     19 C3           2.0920    -0.0040    -1.2030 ca         1 4UX      -0.170000
     20 C5           4.1630     0.0000    -0.0010 ca         1 4UX      -0.324500
     21 S8           5.9260    -0.0010    -0.0020 sy         1 4UX       1.421200
     22 O9           6.3260     0.6640    -1.1920 o          1 4UX      -0.638300
     23 C12          6.7660    -2.3530     1.0340 c3         1 4UX       0.230800
     24 C19          7.9890    -2.6020    -3.4460 c3         1 4UX       0.129700
     25 N20          9.3310    -2.3820    -3.9910 ns         1 4UX      -0.565900
     26 O22          8.5560    -2.3750    -6.0720 o          1 4UX      -0.603000
     27 O23         10.7410    -2.0810    -5.8260 os         1 4UX      -0.418900
     28 C24         10.8580    -1.9840    -7.2700 c3         1 4UX       0.135100
     29 C25         10.9120    -0.5050    -7.7270 c3         1 4UX       0.150400
     30 O26         12.2760    -0.1000    -7.5290 os         1 4UX      -0.453600
     31 C27         13.3340    -1.1020    -7.3820 c3         1 4UX       0.344900
     32 C33          6.4110    -4.5850    -5.5570 ca         1 4UX      -0.116500
     33 C34          6.3530    -5.0380    -6.8610 ca         1 4UX      -0.122000
     34 C35          7.4970    -5.5070    -7.4810 ca         1 4UX      -0.127000
     35 C36          8.6980    -5.5210    -6.7960 ca         1 4UX      -0.122000
     36 C37          8.7550    -5.0660    -5.4920 ca         1 4UX      -0.116500
     37 C38          7.6130    -4.5930    -4.8740 ca         1 4UX      -0.066300
     38 H1          -0.5000     0.8600     0.1110 hn         1 4UX       0.434800
     39 H2          -0.5000    -0.8610    -0.0980 hn         1 4UX       0.434800
     40 H3           4.0170    -0.0060    -2.1370 ha         1 4UX       0.148000
     41 H4           4.0180     0.0020     2.1340 ha         1 4UX       0.148000
     42 H5           1.5540    -0.0000     2.1410 ha         1 4UX       0.143000
     43 H6           5.7660    -4.0970     0.2770 hc         1 4UX       0.054700
     44 H7           7.2140    -4.8020     2.1480 hc         1 4UX       0.037033
     45 H8           6.2570    -3.8190     3.2650 hc         1 4UX       0.037033
     46 H9           5.5260    -5.2220     2.4720 hc         1 4UX       0.037033
     47 H10          3.7700    -3.7440     1.9070 hc         1 4UX       0.037033
     48 H11          3.9360    -2.6230     0.5490 hc         1 4UX       0.037033
     49 H12          4.4570    -2.1350     2.1680 hc         1 4UX       0.037033
     50 H13          5.8230    -1.6770    -2.1600 h1         1 4UX       0.065200
     51 H14          6.2200    -3.2330    -1.4170 h1         1 4UX       0.065200
     52 H15          8.2390    -1.0350    -1.9960 h1         1 4UX       0.065700
     53 H16          9.4970    -2.2900    -0.8600 ho         1 4UX       0.407000
     54 H17         14.1200    -2.9570    -4.8440 h1         1 4UX       0.058200
     55 H18         15.0620    -2.9130    -6.3570 h1         1 4UX       0.058200
     56 H19         12.2900    -3.5720    -5.7960 h1         1 4UX       0.050700
     57 H20         12.2530    -2.7720    -8.8010 hc         1 4UX       0.102700
     58 H23          1.5520    -0.0080    -2.1420 ha         1 4UX       0.143000
     59 H24          7.7720    -2.7420     0.9280 h1         1 4UX       0.070200
     60 H25          6.7150    -1.7170     1.9090 h1         1 4UX       0.070200
     61 H26          7.2620    -2.0770    -4.0540 h1         1 4UX       0.089700
     62 H27         10.1080    -2.2540    -3.3720 hn         1 4UX       0.324500
     63 H28         10.0550    -2.5130    -7.7690 h1         1 4UX       0.094700
     64 H29         10.6460    -0.4270    -8.7750 h1         1 4UX       0.062700
     65 H30         10.2500     0.1000    -7.1190 h1         1 4UX       0.062700
     66 H31         14.1720    -0.9080    -8.0410 h2         1 4UX       0.103700
     67 H32          5.5150    -4.2180    -5.0710 ha         1 4UX       0.123000
     68 H33          5.4110    -5.0300    -7.3960 ha         1 4UX       0.122500
     69 H34          7.4520    -5.8630    -8.5030 ha         1 4UX       0.124000
     70 H35          9.5940    -5.8890    -7.2810 ha         1 4UX       0.122500
     71 H36          9.6960    -5.0770    -4.9550 ha         1 4UX       0.123000
     72 H39         12.6190    -6.5010    -6.5750 h1         1 4UX       0.033367
     73 H40         14.2970    -6.2150    -6.0930 h1         1 4UX       0.033367
     74 H41         12.9830    -5.3570    -5.2750 h1         1 4UX       0.033367
     75 C32          7.6750    -4.0990    -3.4520 c3         1 4UX      -0.050100
     76 N51         13.4190    -4.6690    -7.2050 n7         1 4UX      -0.817200
     77 C52         13.3230    -5.7570    -6.2230 c3         1 4UX       0.143100
     78 H21          8.4520    -4.6330    -2.9170 hc         1 4UX       0.060700
     79 H22          6.7210    -4.2700    -2.9680 hc         1 4UX       0.060700
     80 H37         12.8600    -4.8930    -8.0050 hn         1 4UX       0.356800
@<TRIPOS>BOND
     1    10     8 1
     2     9     8 1
     3    29    30 1
     4    29    28 1
     5     8    23 1
     6    30    31 1
     7    28    18 1
     8    28    27 1
     9    18    31 1
    10    18    17 1
    11    26    14 2
    12    31    15 1
    13    23     7 1
    14    27    14 1
    15    14    25 1
    16     6    21 2
    17    17    76 1
    18    17    16 1
    19    15    16 1
    20     7    21 1
    21     7    11 1
    22    76    77 1
    23    25    24 1
    24    12    24 1
    25    12    11 1
    26    12    13 1
    27    21    20 1
    28    21    22 2
    29     4     5 ar
    30     4    20 ar
    31    24    75 1
    32     5     2 ar
    33    20     3 ar
    34    36    35 ar
    35    36    37 ar
    36    75    37 1
    37    35    34 ar
    38    37    32 ar
    39     2     1 1
    40     2    19 ar
    41     3    19 ar
    42    34    33 ar
    43    32    33 ar
    44     1    38 1
    45     1    39 1
    46     3    40 1
    47     4    41 1
    48     5    42 1
    49     8    43 1
    50     9    44 1
    51     9    45 1
    52     9    46 1
    53    10    47 1
    54    10    48 1
    55    10    49 1
    56    11    50 1
    57    11    51 1
    58    12    52 1
    59    13    53 1
    60    16    54 1
    61    16    55 1
    62    17    56 1
    63    18    57 1
    64    75    78 1
    65    75    79 1
    66    19    58 1
    67    23    59 1
    68    23    60 1
    69    24    61 1
    70    25    62 1
    71    28    63 1
    72    29    64 1
    73    29    65 1
    74    31    66 1
    75    32    67 1
    76    33    68 1
    77    34    69 1
    78    35    70 1
    79    36    71 1
    80    76    80 1
    81    77    72 1
    82    77    73 1
    83    77    74 1
@<TRIPOS>SUBSTRUCTURE
     1 4UX         1 TEMP              0 ****  ****    0 ROOT
