@<TRIPOS>MOLECULE
4UY
   82    85     1     0     0
SMALL
bcc


@<TRIPOS>ATOM
      1 C2           0.0000     0.0000     0.0000 ca         1 4UY       0.202100
      2 C3           1.3870     0.0000     0.0000 ca         1 4UY      -0.210500
      3 C4           2.0760     0.0000     1.1970 ca         1 4UY       0.042500
      4 C5           1.3850    -0.0000     2.3940 ca         1 4UY      -0.209500
      5 C6           0.0020    -0.0010     2.3960 ca         1 4UY       0.042500
      6 C7          -0.6910    -0.0000     1.2030 ca         1 4UY      -0.210500
      7 S8           2.2670     0.0000     3.9200 sy         1 4UY       1.050200
      8 O9           1.3860    -0.5450     4.8920 o          1 4UY      -0.586300
      9 O10          3.5500    -0.5440     3.6400 o          1 4UY      -0.586300
     10 N11          2.5130     1.5820     4.3440 n3         1 4UY      -0.518500
     11 C12          1.5230     2.2820     5.1670 c3         1 4UY       0.228800
     12 C13          1.9360     2.2040     6.6380 c3         1 4UY      -0.076700
     13 C14          0.9720     3.0370     7.4840 c3         1 4UY      -0.003100
     14 C15          1.8930     0.7460     7.1030 c3         1 4UY      -0.003100
     15 C16          3.7190     2.2820     3.8970 c3         1 4UY       0.207800
     16 C17          3.4130     3.0540     2.6120 c3         1 4UY       0.143100
     17 O18          2.4600     4.0830     2.8900 oh         1 4UY      -0.579800
     18 C19          4.7020     3.6830     2.0760 c3         1 4UY       0.012700
     19 N20          4.4330     4.3230     0.7850 ns         1 4UY      -0.168900
     20 C21          5.4310     4.4930    -0.1030 c          1 4UY       0.673100
     21 O22          6.5550     4.1170     0.1670 o          1 4UY      -0.639000
     22 O23          5.1850     5.0800    -1.2890 os         1 4UY      -0.414900
     23 C24          6.3080     5.2310    -2.1970 c3         1 4UY       0.175100
     24 C25          6.4100     4.0110    -3.1370 c3         1 4UY       0.180400
     25 O26          6.8310     4.5570    -4.4050 os         1 4UY      -0.384600
     26 C27          6.0880     5.7830    -4.5640 c3         1 4UY       0.381900
     27 O28          4.7120     5.4530    -4.8430 os         1 4UY      -0.413600
     28 C29          3.9360     6.5540    -4.3220 c3         1 4UY       0.184400
     29 C30          4.6130     6.9150    -2.9820 c3         1 4UY       0.064500
     30 C31          6.0790     6.4250    -3.1480 c3         1 4UY      -0.115700
     31 N41          4.5890     8.3680    -2.7690 n7         1 4UY      -0.574200
     32 C42          3.3340     8.7860    -2.1290 c3         1 4UY       0.177100
     33 C32          5.2080     4.7320     3.0690 c3         1 4UY       0.011900
     34 C33          6.5900     6.3650     1.7680 ca         1 4UY      -0.092500
     35 C34          7.8110     6.8560     1.3450 ca         1 4UY      -0.092000
     36 C35          8.9810     6.2450     1.7560 ca         1 4UY      -0.099000
     37 C36          8.9300     5.1440     2.5900 ca         1 4UY      -0.092000
     38 C37          7.7090     4.6540     3.0130 ca         1 4UY      -0.092500
     39 C38          6.5380     5.2640     2.6020 ca         1 4UY      -0.081300
     40 O39         -0.6810     0.0060    -1.1760 os         1 4UY      -0.304900
     41 C40          0.0960     0.0060    -2.3750 c3         1 4UY       0.244700
     42 H1           1.9290     0.0000    -0.9380 ha         1 4UY       0.126500
     43 H2           3.1590     0.0000     1.1980 ha         1 4UY       0.122500
     44 H3          -0.5370    -0.0010     3.3360 ha         1 4UY       0.122500
     45 H4          -1.7750    -0.0010     1.2050 ha         1 4UY       0.126500
     46 H5           0.5530     1.8170     5.0390 h1         1 4UY       0.027200
     47 H6           1.4690     3.3200     4.8620 h1         1 4UY       0.027200
     48 H7           2.9420     2.5890     6.7510 hc         1 4UY       0.025700
     49 H8          -0.0310     2.6420     7.3840 hc         1 4UY       0.009700
     50 H9           1.2750     2.9950     8.5230 hc         1 4UY       0.009700
     51 H10          0.9900     4.0660     7.1440 hc         1 4UY       0.009700
     52 H11          2.7380     0.2090     6.6890 hc         1 4UY       0.009700
     53 H12          1.9390     0.7110     8.1850 hc         1 4UY       0.009700
     54 H13          0.9720     0.2860     6.7660 hc         1 4UY       0.009700
     55 H14          4.5060     1.5620     3.7070 h1         1 4UY       0.048700
     56 H15          4.0410     2.9740     4.6660 h1         1 4UY       0.048700
     57 H16          3.0070     2.3770     1.8710 h1         1 4UY       0.010700
     58 H17          1.7660     4.0490     2.2530 ho         1 4UY       0.389000
     59 H18          5.4530     2.9140     1.9480 h1         1 4UY       0.069700
     60 H19          3.5020     4.6070     0.5520 hn         1 4UY       0.169500
     61 H20          7.2320     5.3600    -1.6470 h1         1 4UY       0.059700
     62 H21          7.1490     3.3110    -2.7660 h1         1 4UY       0.028200
     63 H22          5.4430     3.5320    -3.2370 h1         1 4UY       0.028200
     64 H23          6.5190     6.4370    -5.3120 h2         1 4UY       0.042700
     65 H24          2.9120     6.2450    -4.1550 h1         1 4UY       0.012200
     66 H25          3.9760     7.3960    -5.0020 h1         1 4UY       0.012200
     67 H26          4.1310     6.3960    -2.1630 h1         1 4UY       0.078700
     68 H27          6.8120     7.2140    -3.0330 hc         1 4UY       0.070700
     69 H28          4.6870     8.8360    -3.6480 hn         1 4UY       0.253800
     70 H30          3.3930     8.5980    -1.0630 h1         1 4UY      -0.000300
     71 H31          3.1760     9.8440    -2.3010 h1         1 4UY      -0.000300
     72 H32          2.5090     8.2240    -2.5490 h1         1 4UY      -0.000300
     73 H33          4.4950     5.5460     3.1300 hc         1 4UY       0.033700
     74 H34          5.3230     4.2780     4.0460 hc         1 4UY       0.033700
     75 H36          7.8510     7.7190     0.6920 ha         1 4UY       0.099000
     76 H37          9.9370     6.6300     1.4240 ha         1 4UY       0.098000
     77 H38          9.8470     4.6650     2.9120 ha         1 4UY       0.099000
     78 H39          7.6690     3.7910     3.6670 ha         1 4UY       0.099500
     79 H40         -0.5650     0.0100    -3.2340 h1         1 4UY       0.001033
     80 H41          0.7180    -0.8810    -2.4030 h1         1 4UY       0.001033
     81 H42          0.7240     0.8880    -2.3990 h1         1 4UY       0.001033
     82 H35          5.6730     6.8440     1.4460 ha         1 4UY       0.099500
@<TRIPOS>BOND
     1     1     2 ar  
     2     1     6 ar  
     3     1    40 1   
     4     2     3 ar  
     5     2    42 1   
     6     3     4 ar  
     7     3    43 1   
     8     4     5 ar  
     9     4     7 1   
    10     5     6 ar  
    11     5    44 1   
    12     6    45 1   
    13     7     8 2   
    14     7     9 2   
    15     7    10 1   
    16    10    11 1   
    17    10    15 1   
    18    11    12 1   
    19    11    46 1   
    20    11    47 1   
    21    12    13 1   
    22    12    14 1   
    23    12    48 1   
    24    13    49 1   
    25    13    50 1   
    26    13    51 1   
    27    14    52 1   
    28    14    53 1   
    29    14    54 1   
    30    15    16 1   
    31    15    55 1   
    32    15    56 1   
    33    16    17 1   
    34    16    18 1   
    35    16    57 1   
    36    17    58 1   
    37    18    19 1   
    38    18    33 1   
    39    18    59 1   
    40    19    20 1   
    41    19    60 1   
    42    20    21 2   
    43    20    22 1   
    44    22    23 1   
    45    23    24 1   
    46    23    30 1   
    47    23    61 1   
    48    24    25 1   
    49    24    62 1   
    50    24    63 1   
    51    25    26 1   
    52    26    27 1   
    53    26    30 1   
    54    26    64 1   
    55    27    28 1   
    56    28    29 1   
    57    28    65 1   
    58    28    66 1   
    59    29    30 1   
    60    29    31 1   
    61    29    67 1   
    62    30    68 1   
    63    31    32 1   
    64    31    69 1   
    65    32    70 1   
    66    32    71 1   
    67    32    72 1   
    68    33    39 1   
    69    33    73 1   
    70    33    74 1   
    71    34    35 ar  
    72    34    39 ar  
    73    34    82 1   
    74    35    36 ar  
    75    35    75 1   
    76    36    37 ar  
    77    36    76 1   
    78    37    38 ar  
    79    37    77 1   
    80    38    39 ar  
    81    38    78 1   
    82    40    41 1   
    83    41    79 1   
    84    41    80 1   
    85    41    81 1   
@<TRIPOS>SUBSTRUCTURE
     1 4UY         1 TEMP              0 ****  ****    0 ROOT
