@<TRIPOS>MOLECULE
molecule
   82    85     1     0     0
SMALL
bcc


@<TRIPOS>ATOM
      1 C2           0.0000     0.0000     0.0000 ca         1 4UY       0.192100
      2 C3           1.3870     0.0000     0.0000 ca         1 4UY      -0.214500
      3 C4           2.0760     0.0000     1.1970 ca         1 4UY       0.004000
      4 C5           1.3850    -0.0000     2.3940 ca         1 4UY      -0.359500
      5 C6           0.0020    -0.0010     2.3960 ca         1 4UY       0.004000
      6 C7          -0.6910    -0.0000     1.2030 ca         1 4UY      -0.214500
      7 S8           2.2670     0.0000     3.9200 sy         1 4UY       1.423200
      8 O9           1.3860    -0.5450     4.8920 o          1 4UY      -0.635800
      9 O10          3.5500    -0.5440     3.6400 o          1 4UY      -0.635800
     10 N11          2.5130     1.5820     4.3440 n3         1 4UY      -0.811500
     11 C12          1.5230     2.2820     5.1670 c3         1 4UY       0.237800
     12 C13          1.9360     2.2040     6.6380 c3         1 4UY      -0.096700
     13 C14          0.9720     3.0370     7.4840 c3         1 4UY      -0.088600
     14 C15          1.8930     0.7460     7.1030 c3         1 4UY      -0.088600
     15 C16          3.7190     2.2820     3.8970 c3         1 4UY       0.226800
     16 C17          3.4130     3.0540     2.6120 c3         1 4UY       0.104100
     17 O18          2.4600     4.0830     2.8900 oh         1 4UY      -0.600800
     18 C19          4.7020     3.6830     2.0760 c3         1 4UY       0.123700
     19 N20          4.4330     4.3230     0.7850 ns         1 4UY      -0.569900
     20 C21          5.4310     4.4930    -0.1030 c          1 4UY       0.745100
     21 O22          6.5550     4.1170     0.1670 o          1 4UY      -0.592000
     22 O23          5.1850     5.0800    -1.2890 os         1 4UY      -0.437900
     23 C24          6.3080     5.2310    -2.1970 c3         1 4UY       0.144100
     24 C25          6.4100     4.0110    -3.1370 c3         1 4UY       0.105400
     25 O26          6.8310     4.5570    -4.4050 os         1 4UY      -0.385600
     26 C27          6.0880     5.7830    -4.5640 c3         1 4UY       0.313900
     27 O28          4.7120     5.4530    -4.8430 os         1 4UY      -0.420600
     28 C29          3.9360     6.5540    -4.3220 c3         1 4UY       0.096400
     29 C30          4.6130     6.9150    -2.9820 c3         1 4UY       0.127500
     30 C31          6.0790     6.4250    -3.1480 c3         1 4UY      -0.124700
     31 N41          4.5890     8.3680    -2.7690 n7         1 4UY      -0.811200
     32 C42          3.3340     8.7860    -2.1290 c3         1 4UY       0.146100
     33 C32          5.2080     4.7320     3.0690 c3         1 4UY      -0.047100
     34 C33          6.5900     6.3650     1.7680 ca         1 4UY      -0.116500
     35 C34          7.8110     6.8560     1.3450 ca         1 4UY      -0.121000
     36 C35          8.9810     6.2450     1.7560 ca         1 4UY      -0.126000
     37 C36          8.9300     5.1440     2.5900 ca         1 4UY      -0.121000
     38 C37          7.7090     4.6540     3.0130 ca         1 4UY      -0.116500
     39 C38          6.5380     5.2640     2.6020 ca         1 4UY      -0.073300
     40 O39         -0.6810     0.0060    -1.1760 os         1 4UY      -0.322900
     41 C40          0.0960     0.0060    -2.3750 c3         1 4UY       0.125700
     42 H1           1.9290     0.0000    -0.9380 ha         1 4UY       0.148000
     43 H2           3.1590     0.0000     1.1980 ha         1 4UY       0.152500
     44 H3          -0.5370    -0.0010     3.3360 ha         1 4UY       0.152500
     45 H4          -1.7750    -0.0010     1.2050 ha         1 4UY       0.148000
     46 H5           0.5530     1.8170     5.0390 h1         1 4UY       0.059200
     47 H6           1.4690     3.3200     4.8620 h1         1 4UY       0.059200
     48 H7           2.9420     2.5890     6.7510 hc         1 4UY       0.051700
     49 H8          -0.0310     2.6420     7.3840 hc         1 4UY       0.039367
     50 H9           1.2750     2.9950     8.5230 hc         1 4UY       0.039367
     51 H10          0.9900     4.0660     7.1440 hc         1 4UY       0.039367
     52 H11          2.7380     0.2090     6.6890 hc         1 4UY       0.039367
     53 H12          1.9390     0.7110     8.1850 hc         1 4UY       0.039367
     54 H13          0.9720     0.2860     6.7660 hc         1 4UY       0.039367
     55 H14          4.5060     1.5620     3.7070 h1         1 4UY       0.080700
     56 H15          4.0410     2.9740     4.6660 h1         1 4UY       0.080700
     57 H16          3.0070     2.3770     1.8710 h1         1 4UY       0.042700
     58 H17          1.7660     4.0490     2.2530 ho         1 4UY       0.403000
     59 H18          5.4530     2.9140     1.9480 h1         1 4UY       0.091700
     60 H19          3.5020     4.6070     0.5520 hn         1 4UY       0.317500
     61 H20          7.2320     5.3600    -1.6470 h1         1 4UY       0.095700
     62 H21          7.1490     3.3110    -2.7660 h1         1 4UY       0.072200
     63 H22          5.4430     3.5320    -3.2370 h1         1 4UY       0.072200
     64 H23          6.5190     6.4370    -5.3120 h2         1 4UY       0.096700
     65 H24          2.9120     6.2450    -4.1550 h1         1 4UY       0.051700
     66 H25          3.9760     7.3960    -5.0020 h1         1 4UY       0.051700
     67 H26          4.1310     6.3960    -2.1630 h1         1 4UY       0.105700
     68 H27          6.8120     7.2140    -3.0330 hc         1 4UY       0.102700
     69 H28          4.6870     8.8360    -3.6480 hn         1 4UY       0.351800
     70 H30          3.3930     8.5980    -1.0630 h1         1 4UY       0.033033
     71 H31          3.1760     9.8440    -2.3010 h1         1 4UY       0.033033
     72 H32          2.5090     8.2240    -2.5490 h1         1 4UY       0.033033
     73 H33          4.4950     5.5460     3.1300 hc         1 4UY       0.061700
     74 H34          5.3230     4.2780     4.0460 hc         1 4UY       0.061700
     75 H36          7.8510     7.7190     0.6920 ha         1 4UY       0.126000
     76 H37          9.9370     6.6300     1.4240 ha         1 4UY       0.125000
     77 H38          9.8470     4.6650     2.9120 ha         1 4UY       0.126000
     78 H39          7.6690     3.7910     3.6670 ha         1 4UY       0.124000
     79 H40         -0.5650     0.0100    -3.2340 h1         1 4UY       0.047033
     80 H41          0.7180    -0.8810    -2.4030 h1         1 4UY       0.047033
     81 H42          0.7240     0.8880    -2.3990 h1         1 4UY       0.047033
     82 H35          5.6730     6.8440     1.4460 ha         1 4UY       0.124000
@<TRIPOS>BOND
     1    36    37 ar
     2    36    35 ar
     3    37    38 ar
     4    35    34 ar
     5    38    39 ar
     6    32    31 1
     7    34    39 ar
     8     2     3 ar
     9     2     1 ar
    10    40    41 1
    11    40     1 1
    12    39    33 1
    13     3     4 ar
    14     8     7 2
    15     1     6 ar
    16     4     5 ar
    17     4     7 1
    18     6     5 ar
    19    33    18 1
    20    31    29 1
    21     7     9 2
    22     7    10 1
    23    29    28 1
    24    29    30 1
    25    18    19 1
    26    18    16 1
    27    28    27 1
    28    15    10 1
    29    15    16 1
    30    10    11 1
    31    19    20 1
    32    21    20 2
    33    20    22 1
    34    16    17 1
    35    30    23 1
    36    30    26 1
    37    27    26 1
    38    22    23 1
    39    11    12 1
    40    23    24 1
    41    26    25 1
    42    13    12 1
    43    12    14 1
    44    25    24 1
    45     2    42 1
    46     3    43 1
    47     5    44 1
    48     6    45 1
    49    11    46 1
    50    11    47 1
    51    12    48 1
    52    13    49 1
    53    13    50 1
    54    13    51 1
    55    14    52 1
    56    14    53 1
    57    14    54 1
    58    15    55 1
    59    15    56 1
    60    16    57 1
    61    17    58 1
    62    18    59 1
    63    19    60 1
    64    23    61 1
    65    24    62 1
    66    24    63 1
    67    26    64 1
    68    28    65 1
    69    28    66 1
    70    29    67 1
    71    30    68 1
    72    31    69 1
    73    32    70 1
    74    32    71 1
    75    32    72 1
    76    33    73 1
    77    33    74 1
    78    34    82 1
    79    35    75 1
    80    36    76 1
    81    37    77 1
    82    38    78 1
    83    41    79 1
    84    41    80 1
    85    41    81 1
@<TRIPOS>SUBSTRUCTURE
     1 4UY         1 TEMP              0 ****  ****    0 ROOT
