@<TRIPOS>MOLECULE
molecule
   41    42     1     0     0
SMALL
bcc


@<TRIPOS>ATOM
      1 C01          0.0000     0.0000     0.0000 c3         1 4UZ       0.120100
      2 C02          1.5320     0.0000     0.0000 c3         1 4UZ       0.106700
      3 C03          2.0340     0.0000     1.4460 c3         1 4UZ       0.330900
      4 O04          1.5090    -1.1390     2.1310 os         1 4UZ      -0.428600
      5 C05          0.0820    -1.1670     2.2050 c3         1 4UZ       0.152100
      6 C06         -0.5010    -1.2130     0.7890 c3         1 4UZ       0.104100
      7 N07          2.0210     1.1970    -0.6880 ns         1 4UZ      -0.565900
      8 O08         -1.9280    -1.1840     0.8600 oh         1 4UZ      -0.602800
      9 O09         -0.4780    -0.0730    -1.3440 oh         1 4UZ      -0.591800
     10 C10         -0.3640    -2.4090     2.9810 c3         1 4UZ       0.152400
     11 O11          3.4620    -0.0570     1.4540 oh         1 4UZ      -0.553800
     12 O12          0.0820    -2.3100     4.3340 oh         1 4UZ      -0.600800
     13 C13          3.2430     1.1960    -1.2560 c          1 4UZ       0.752100
     14 O14          3.6930     2.2950    -1.8890 os         1 4UZ      -0.442900
     15 O15          3.9390     0.2020    -1.1980 o          1 4UZ      -0.585000
     16 C16          5.0180     2.2220    -2.4770 c3         1 4UZ       0.217700
     17 C17          5.3490     3.5370    -3.1370 ca         1 4UZ      -0.100300
     18 C18          5.0170     3.7480    -4.4630 ca         1 4UZ      -0.102500
     19 C19          5.3160     4.9550    -5.0660 ca         1 4UZ      -0.134000
     20 C20          5.9450     5.9520    -4.3440 ca         1 4UZ      -0.117000
     21 C21          6.2750     5.7420    -3.0180 ca         1 4UZ      -0.134000
     22 C22          5.9770     4.5340    -2.4140 ca         1 4UZ      -0.102500
     23 H1          -0.3600     0.9080     0.4680 h1         1 4UZ       0.046700
     24 H2           1.8920    -0.8870    -0.5070 h1         1 4UZ       0.117700
     25 H3           1.7010     0.9030     1.9430 h2         1 4UZ       0.022700
     26 H4          -0.2700    -0.2750     2.7090 h1         1 4UZ       0.059700
     27 H5          -0.1770    -2.1220     0.2960 h1         1 4UZ       0.065700
     28 H6           1.4570     2.0240    -0.7160 hn         1 4UZ       0.317500
     29 H7          -2.2840    -1.8650     0.3140 ho         1 4UZ       0.415000
     30 H8          -1.0410     0.6630    -1.5180 ho         1 4UZ       0.411000
     31 H9           0.0630    -3.2930     2.5240 h1         1 4UZ       0.037200
     32 H10         -1.4450    -2.4780     2.9610 h1         1 4UZ       0.037200
     33 H11          3.7770     0.0730     2.3330 ho         1 4UZ       0.412000
     34 H12         -0.2920    -3.0110     4.8410 ho         1 4UZ       0.404000
     35 H13          5.0410     1.4310    -3.2170 h1         1 4UZ       0.058200
     36 H14          5.7460     2.0130    -1.7030 h1         1 4UZ       0.058200
     37 H15          4.5250     2.9660    -5.0290 ha         1 4UZ       0.134500
     38 H16          5.0570     5.1200    -6.1050 ha         1 4UZ       0.131000
     39 H17          6.1780     6.8980    -4.8160 ha         1 4UZ       0.130000
     40 H18          6.7670     6.5230    -2.4520 ha         1 4UZ       0.131000
     41 H19          6.2360     4.3690    -1.3750 ha         1 4UZ       0.134500
@<TRIPOS>BOND
     1    12    10 1
     2    10     5 1
     3     4     5 1
     4     4     3 1
     5     5     6 1
     6     6     8 1
     7     6     1 1
     8    11     3 1
     9     3     2 1
    10    15    13 2
    11     2     1 1
    12     2     7 1
    13     1     9 1
    14    19    20 ar
    15    19    18 ar
    16    20    21 ar
    17    13     7 1
    18    13    14 1
    19    18    17 ar
    20    21    22 ar
    21    17    22 ar
    22    17    16 1
    23    16    14 1
    24     1    23 1
    25     2    24 1
    26     3    25 1
    27     5    26 1
    28     6    27 1
    29     7    28 1
    30     8    29 1
    31     9    30 1
    32    10    31 1
    33    10    32 1
    34    11    33 1
    35    12    34 1
    36    16    35 1
    37    16    36 1
    38    18    37 1
    39    19    38 1
    40    20    39 1
    41    21    40 1
    42    22    41 1
@<TRIPOS>SUBSTRUCTURE
     1 4UZ         1 TEMP              0 ****  ****    0 ROOT
