@<TRIPOS>MOLECULE
4UZ
   41    42     1     0     0
SMALL
bcc


@<TRIPOS>ATOM
      1 C01          0.0000     0.0000     0.0000 c3         1 4UZ       0.164100
      2 C02          1.5320     0.0000     0.0000 c3         1 4UZ      -0.024300
      3 C03          2.0340     0.0000     1.4460 c3         1 4UZ       0.389900
      4 O04          1.5090    -1.1390     2.1310 os         1 4UZ      -0.410600
      5 C05          0.0820    -1.1670     2.2050 c3         1 4UZ       0.172100
      6 C06         -0.5010    -1.2130     0.7890 c3         1 4UZ       0.140100
      7 N07          2.0210     1.1970    -0.6880 ns         1 4UZ      -0.156900
      8 O08         -1.9280    -1.1840     0.8600 oh         1 4UZ      -0.583800
      9 O09         -0.4780    -0.0730    -1.3440 oh         1 4UZ      -0.575800
     10 C10         -0.3640    -2.4090     2.9810 c3         1 4UZ       0.225400
     11 O11          3.4620    -0.0570     1.4540 oh         1 4UZ      -0.543800
     12 O12          0.0820    -2.3100     4.3340 oh         1 4UZ      -0.583800
     13 C13          3.2430     1.1960    -1.2560 c          1 4UZ       0.679100
     14 O14          3.6930     2.2950    -1.8890 os         1 4UZ      -0.425900
     15 O15          3.9390     0.2020    -1.1980 o          1 4UZ      -0.633000
     16 C16          5.0180     2.2220    -2.4770 c3         1 4UZ       0.302700
     17 C17          5.3490     3.5370    -3.1370 ca         1 4UZ      -0.118300
     18 C18          5.0170     3.7480    -4.4630 ca         1 4UZ      -0.075000
     19 C19          5.3160     4.9550    -5.0660 ca         1 4UZ      -0.107000
     20 C20          5.9450     5.9520    -4.3440 ca         1 4UZ      -0.092000
     21 C21          6.2750     5.7420    -3.0180 ca         1 4UZ      -0.107000
     22 C22          5.9770     4.5340    -2.4140 ca         1 4UZ      -0.075000
     23 H1          -0.3600     0.9080     0.4680 h1         1 4UZ       0.012700
     24 H2           1.8920    -0.8870    -0.5070 h1         1 4UZ       0.090700
     25 H3           1.7010     0.9030     1.9430 h2         1 4UZ      -0.016300
     26 H4          -0.2700    -0.2750     2.7090 h1         1 4UZ       0.024700
     27 H5          -0.1770    -2.1220     0.2960 h1         1 4UZ       0.030700
     28 H6           1.4570     2.0240    -0.7160 hn         1 4UZ       0.167500
     29 H7          -2.2840    -1.8650     0.3140 ho         1 4UZ       0.401000
     30 H8          -1.0410     0.6630    -1.5180 ho         1 4UZ       0.397000
     31 H9           0.0630    -3.2930     2.5240 h1         1 4UZ      -0.001300
     32 H10         -1.4450    -2.4780     2.9610 h1         1 4UZ      -0.001300
     33 H11          3.7770     0.0730     2.3330 ho         1 4UZ       0.395000
     34 H12         -0.2920    -3.0110     4.8410 ho         1 4UZ       0.390000
     35 H13          5.0410     1.4310    -3.2170 h1         1 4UZ       0.015200
     36 H14          5.7460     2.0130    -1.7030 h1         1 4UZ       0.015200
     37 H15          4.5250     2.9660    -5.0290 ha         1 4UZ       0.107000
     38 H16          5.0570     5.1200    -6.1050 ha         1 4UZ       0.103000
     39 H17          6.1780     6.8980    -4.8160 ha         1 4UZ       0.101000
     40 H18          6.7670     6.5230    -2.4520 ha         1 4UZ       0.103000
     41 H19          6.2360     4.3690    -1.3750 ha         1 4UZ       0.107000
@<TRIPOS>BOND
     1     1     2 1   
     2     1     6 1   
     3     1     9 1   
     4     1    23 1   
     5     2     3 1   
     6     2     7 1   
     7     2    24 1   
     8     3     4 1   
     9     3    11 1   
    10     3    25 1   
    11     4     5 1   
    12     5     6 1   
    13     5    10 1   
    14     5    26 1   
    15     6     8 1   
    16     6    27 1   
    17     7    13 1   
    18     7    28 1   
    19     8    29 1   
    20     9    30 1   
    21    10    12 1   
    22    10    31 1   
    23    10    32 1   
    24    11    33 1   
    25    12    34 1   
    26    13    14 1   
    27    13    15 2   
    28    14    16 1   
    29    16    17 1   
    30    16    35 1   
    31    16    36 1   
    32    17    18 ar  
    33    17    22 ar  
    34    18    19 ar  
    35    18    37 1   
    36    19    20 ar  
    37    19    38 1   
    38    20    21 ar  
    39    20    39 1   
    40    21    22 ar  
    41    21    40 1   
    42    22    41 1   
@<TRIPOS>SUBSTRUCTURE
     1 4UZ         1 TEMP              0 ****  ****    0 ROOT
