@<TRIPOS>MOLECULE
4V0
   25    25     1     0     0
SMALL
bcc


@<TRIPOS>ATOM
      1 N            0.0000     0.0000     0.0000 nz         1 4V0       0.040400
      2 CA           1.4690     0.0000     0.0000 c3         1 4V0      -0.104500
      3 CB           1.9790     0.0000     1.4430 c3         1 4V0      -0.154200
      4 CG           1.5800     1.2870     2.1170 ce         1 4V0      -0.075200
      5 CD1          2.4230     2.4600     1.9510 ce         1 4V0      -0.196000
      6 CE1          2.7040     3.3390     2.9070 cf         1 4V0       0.098600
      7 NZ1          2.2840     3.2880     4.1800 nf         1 4V0      -0.461300
      8 CZ2          1.0950     2.9680     4.5380 c2         1 4V0       0.433200
      9 CE2          0.0410     2.5780     3.5400 c3         1 4V0      -0.063500
     10 CD2          0.4670     1.3160     2.8390 c2         1 4V0      -0.160200
     11 C            1.9730    -1.2290    -0.7100 c          1 4V0       0.948600
     12 O            3.2260    -1.2640    -1.1880 o          1 4V0      -0.812800
     13 H1          -0.3340    -0.2560    -0.9080 hn         1 4V0       0.216800
     14 H2          -0.3340    -0.6580     0.6760 hn         1 4V0       0.216800
     15 H4           1.8300     0.8850    -0.5100 hx         1 4V0       0.064700
     16 H5           2.3650     0.7170     0.7290 hc         1 4V0       0.107200
     17 H6           2.8710    -0.5340     1.7440 hc         1 4V0       0.107200
     18 H7           2.8560     2.6300     0.9730 ha         1 4V0       0.116000
     19 H8           3.3320     4.1770     2.6320 h4         1 4V0       0.118000
     20 H9           0.8420     2.9790     5.5920 h4         1 4V0      -0.011200
     21 H10         -0.8970     2.4060     4.0540 hc         1 4V0       0.028200
     22 H11         -0.0790     3.3730     2.8130 hc         1 4V0       0.028200
     23 H12         -0.1380     0.4220     2.9290 ha         1 4V0       0.108000
     24 OXT          1.2470    -2.1860    -0.8490 o          1 4V0      -0.812800
     25 HN3         -0.3340     0.9150     0.2320 hn         1 4V0       0.216800
@<TRIPOS>BOND
     1     1     2 1   
     2     1    13 1   
     3     1    14 1   
     4     1    25 1   
     5     2     3 1   
     6     2    11 1   
     7     2    15 1   
     8     3     4 1   
     9     3    16 1   
    10     3    17 1   
    11     4     5 1   
    12     4    10 2   
    13     5     6 2   
    14     5    18 1   
    15     6     7 1   
    16     6    19 1   
    17     7     8 2   
    18     8     9 1   
    19     8    20 1   
    20     9    10 1   
    21     9    21 1   
    22     9    22 1   
    23    10    23 1   
    24    11    12 1   
    25    11    24 1   
@<TRIPOS>SUBSTRUCTURE
     1 4V0         1 TEMP              0 ****  ****    0 ROOT
