@<TRIPOS>MOLECULE
molecule
   25    25     1     0     0
SMALL
bcc


@<TRIPOS>ATOM
      1 N            0.0000     0.0000     0.0000 nz         1 4V0      -0.800600
      2 CA           1.4690     0.0000     0.0000 c3         1 4V0       0.048500
      3 CB           1.9790     0.0000     1.4430 c3         1 4V0      -0.190200
      4 CG           1.5800     1.2870     2.1170 ce         1 4V0      -0.081200
      5 CD1          2.4230     2.4600     1.9510 cf         1 4V0      -0.219000
      6 CE1          2.7040     3.3390     2.9070 ce         1 4V0       0.109600
      7 NZ1          2.2840     3.2880     4.1800 ne         1 4V0      -0.594300
      8 CZ2          1.0950     2.9680     4.5380 c2         1 4V0       0.478200
      9 CE2          0.0410     2.5780     3.5400 c3         1 4V0      -0.153500
     10 CD2          0.4670     1.3160     2.8390 c2         1 4V0      -0.173200
     11 C            1.9730    -1.2290    -0.7100 c          1 4V0       0.865600
     12 O            3.2260    -1.2640    -1.1880 o          1 4V0      -0.768800
     13 H1          -0.3340    -0.2560    -0.9080 hn         1 4V0       0.438467
     14 H2          -0.3340    -0.6580     0.6760 hn         1 4V0       0.438467
     15 H4           1.8300     0.8850    -0.5100 hx         1 4V0       0.080700
     16 H5           2.3650     0.7170     0.7290 hc         1 4V0       0.134200
     17 H6           2.8710    -0.5340     1.7440 hc         1 4V0       0.134200
     18 H7           2.8560     2.6300     0.9730 ha         1 4V0       0.135000
     19 H8           3.3320     4.1770     2.6320 h4         1 4V0       0.159000
     20 H9           0.8420     2.9790     5.5920 h4         1 4V0       0.035800
     21 H10         -0.8970     2.4060     4.0540 hc         1 4V0       0.062200
     22 H11         -0.0790     3.3730     2.8130 hc         1 4V0       0.062200
     23 H12         -0.1380     0.4220     2.9290 ha         1 4V0       0.130000
     24 OXT          1.2470    -2.1860    -0.8490 o          1 4V0      -0.768800
     25 HN3         -0.3340     0.9150     0.2320 hn         1 4V0       0.438467
@<TRIPOS>BOND
     1     7     6 1
     2     7     8 2
     3     6     5 2
     4     8     9 1
     5     5     4 1
     6     9    10 1
     7     4    10 2
     8     4     3 1
     9     3     2 1
    10     2    11 1
    11     2     1 1
    12    11    12 1
    13     1    13 1
    14     1    14 1
    15     2    15 1
    16     3    16 1
    17     3    17 1
    18     5    18 1
    19     6    19 1
    20     8    20 1
    21     9    21 1
    22     9    22 1
    23    10    23 1
    24    11    24 1
    25    25     1 1
@<TRIPOS>SUBSTRUCTURE
     1 4V0         1 TEMP              0 ****  ****    0 ROOT
