@<TRIPOS>MOLECULE
4V1
   43    46     1     0     0
SMALL
bcc


@<TRIPOS>ATOM
      1 N1           0.0000     0.0000     0.0000 nc         1 4V1      -0.505100
      2 N3          -0.0710     0.0000    -2.3370 ns         1 4V1       0.007600
      3 C4           1.2750     0.0000    -2.4180 c          1 4V1       0.628100
      4 C5           2.0370     0.0010    -1.2080 cd         1 4V1      -0.249600
      5 C6           1.3480     0.0000     0.0000 cc         1 4V1       0.279300
      6 CAB         -4.1870    -0.0010     0.2370 ca         1 4V1      -0.122300
      7 CAC         -2.8100    -0.0010     0.1840 ca         1 4V1      -0.056500
      8 CAW         -4.9300    -0.0060    -0.9360 ca         1 4V1       0.146100
      9 OAX         -6.2860    -0.0110    -0.8800 oh         1 4V1      -0.496100
     10 CAU         -4.2890    -0.0050    -2.1690 ca         1 4V1      -0.122300
     11 CAV         -5.1000    -0.0090    -3.4390 c3         1 4V1       0.070200
     12 CAT         -2.9130     0.0010    -2.2320 ca         1 4V1      -0.056500
     13 CAD         -2.1620     0.0000    -1.0530 ca         1 4V1      -0.170900
     14 C2          -0.6870     0.0000    -1.1150 cd         1 4V1       0.361500
     15 SAH          2.4930     0.0000     1.3330 ss         1 4V1      -0.226800
     16 CAI          3.8700     0.0030     0.2480 cc         1 4V1      -0.018400
     17 CAJ          5.3250     0.0040     0.6850 c3         1 4V1       0.264100
     18 NAK          6.1600    -0.3890    -0.4590 n3         1 4V1      -0.543600
     19 CAL          7.5870    -0.2960    -0.1250 c3         1 4V1       0.188100
     20 CAM          5.8410     0.4230    -1.6430 c3         1 4V1       0.146800
     21 CAN          4.4720     0.0070    -2.1880 c3         1 4V1       0.051900
     22 CAO          3.4810     0.0040    -1.0300 cd         1 4V1      -0.018300
     23 O4           1.8310    -0.0000    -3.5020 o          1 4V1      -0.681500
     24 H1          -0.6210     0.0000    -3.1730 hn         1 4V1       0.190500
     25 H2          -5.6180     0.7970     1.5960 hc         1 4V1       0.011367
     26 H3          -5.3870    -0.9520     1.7160 hc         1 4V1       0.011367
     27 H4          -4.1610     0.1490     2.3610 hc         1 4V1       0.011367
     28 H5          -2.2320    -0.0010     1.1000 ha         1 4V1       0.121500
     29 H6          -6.5970    -0.9010    -0.8670 ho         1 4V1       0.407000
     30 H7          -5.8410     0.7800    -3.3980 hc         1 4V1       0.011367
     31 H8          -5.5970    -0.9660    -3.5470 hc         1 4V1       0.011367
     32 H9          -4.4450     0.1550    -4.2870 hc         1 4V1       0.011367
     33 H10         -2.4140     0.0010    -3.1940 ha         1 4V1       0.121500
     34 H11          5.4610    -0.7040     1.4940 h1         1 4V1       0.017200
     35 H12          5.6040     0.9980     1.0140 h1         1 4V1       0.017200
     36 H14          7.7840    -0.8600     0.7790 h1         1 4V1       0.001033
     37 H15          7.8550     0.7420     0.0310 h1         1 4V1       0.001033
     38 H16          8.1750    -0.7030    -0.9390 h1         1 4V1       0.001033
     39 H17          5.8160     1.4700    -1.3660 h1         1 4V1       0.011700
     40 H18          6.5960     0.2620    -2.4040 h1         1 4V1       0.011700
     41 H19          4.5360    -0.9860    -2.6160 hc         1 4V1       0.042200
     42 H20          4.1490     0.7160    -2.9410 hc         1 4V1       0.042200
     43 CAA         -4.8880    -0.0020     1.5710 c3         1 4V1       0.070200
@<TRIPOS>BOND
     1     1     5 1   
     2     1    14 2   
     3     2     3 1   
     4     2    14 1   
     5     2    24 1   
     6     3     4 1   
     7     3    23 2   
     8     4     5 2   
     9     4    22 1   
    10     5    15 1   
    11     6     7 ar  
    12     6     8 ar  
    13     6    43 1   
    14     7    13 ar  
    15     7    28 1   
    16     8     9 1   
    17     8    10 ar  
    18     9    29 1   
    19    10    11 1   
    20    10    12 ar  
    21    11    30 1   
    22    11    31 1   
    23    11    32 1   
    24    12    13 ar  
    25    12    33 1   
    26    13    14 1   
    27    15    16 1   
    28    16    17 1   
    29    16    22 2   
    30    17    18 1   
    31    17    34 1   
    32    17    35 1   
    33    18    19 1   
    34    18    20 1   
    35    19    36 1   
    36    19    37 1   
    37    19    38 1   
    38    20    21 1   
    39    20    39 1   
    40    20    40 1   
    41    21    22 1   
    42    21    41 1   
    43    21    42 1   
    44    25    43 1   
    45    26    43 1   
    46    27    43 1   
@<TRIPOS>SUBSTRUCTURE
     1 4V1         1 TEMP              0 ****  ****    0 ROOT
