@<TRIPOS>MOLECULE
4V2
   19    20     1     0     0
SMALL
bcc


@<TRIPOS>ATOM
      1 OAA         0.0100    0.1990   -0.1870 oh        1 4V2     -0.494100
      2 CAJ         1.3790    0.1220   -0.0800 ca        1 4V2      0.119100
      3 CAF         2.0340    0.0640    1.1560 ca        1 4V2     -0.171000
      4 CAD         2.1000    0.1060   -1.2870 ca        1 4V2     -0.134000
      5 CAC         3.4880    0.0300   -1.2420 ca        1 4V2     -0.104000
      6 CAE         4.1600   -0.0290   -0.0210 ca        1 4V2     -0.128000
      7 CAL         3.4340   -0.0120    1.1770 ca        1 4V2     -0.099500
      8 CAM         4.1190   -0.0730    2.4500 cc        1 4V2      0.512900
      9 OAI         5.5300   -0.1470    2.4500 os        1 4V2     -0.364800
     10 NAH         3.6830   -0.0770    3.7290 nd        1 4V2     -0.333000
     11 NAG         4.7180   -0.1470    4.5410 nd        1 4V2     -0.362000
     12 CAK         5.8600   -0.1910    3.8130 cc        1 4V2      0.512700
     13 SAB         7.4760   -0.2830    4.2310 sh        1 4V2     -0.206100
     14 HAA        -0.3620    0.2020    0.7070 ho        1 4V2      0.425000
     15 HAF         1.4590    0.0770    2.0940 ha        1 4V2      0.159000
     16 HAD         1.5580    0.1540   -2.2430 ha        1 4V2      0.156000
     17 HAC         4.0630    0.0170   -2.1800 ha        1 4V2      0.143000
     18 HAE         5.2590   -0.0890    0.0050 ha        1 4V2      0.151000
     19 HAB         7.3270   -0.3020    5.5520 hs        1 4V2      0.217800
@<TRIPOS>BOND
     1    1    2 1
     2    1   14 1
     3    2    3 ar
     4    2    4 ar
     5    3    7 ar
     6    3   15 1
     7    4    5 ar
     8    4   16 1
     9    5    6 ar
    10    5   17 1
    11    6    7 ar
    12    6   18 1
    13    7    8 1
    14    8    9 1
    15    8   10 2
    16    9   12 1
    17   10   11 1
    18   11   12 2
    19   12   13 1
    20   13   19 1
@<TRIPOS>SUBSTRUCTURE
     1 4V2         1 TEMP              0 ****  ****    0 ROOT
