@<TRIPOS>MOLECULE
molecule
   46    48     1     0     0
SMALL
bcc


@<TRIPOS>ATOM
      1 C10          0.0000     0.0000     0.0000 c3         1 4V3       0.152400
      2 C13          5.8770     0.1400     3.0650 c          1 4V3       0.756100
      3 C01          3.8490     0.0000     0.0000 c3         1 4V3       0.117100
      4 C02          3.9940     0.0000     1.5250 c3         1 4V3       0.109700
      5 C03          2.9220     0.9090     2.1320 c3         1 4V3       0.331900
      6 O04          1.6290     0.4540     1.7270 os         1 4V3      -0.428600
      7 C05          1.4200     0.4770     0.3130 c3         1 4V3       0.155100
      8 C06          2.4310    -0.4480    -0.3670 c3         1 4V3       0.101100
      9 N07          5.3230     0.4980     1.8900 ns         1 4V3      -0.563900
     10 O08          2.2610    -0.3830    -1.7840 oh         1 4V3      -0.603800
     11 O09          4.7980    -0.9020    -0.5710 oh         1 4V3      -0.592800
     12 O12         -0.9450     0.9280     0.5380 oh         1 4V3      -0.600800
     13 O14          7.0980     0.5980     3.4010 os         1 4V3      -0.451900
     14 O15          5.2750    -0.5970     3.8210 o          1 4V3      -0.578000
     15 C16          7.6340     0.1700     4.6810 c3         1 4V3       0.270600
     16 C17          8.9970     0.7780     4.8830 ce         1 4V3      -0.261300
     17 C18          9.6610     1.5800     4.0680 cf         1 4V3      -0.025200
     18 C19         10.9900     2.0640     4.4620 ca         1 4V3      -0.058800
     19 C20         11.4280     1.6020     5.7110 ca         1 4V3      -0.250500
     20 S21         10.0870     0.5890     6.2790 sy         1 4V3       1.255200
     21 C22         11.8630     2.9160     3.7550 ca         1 4V3      -0.092000
     22 C23         13.0820     3.2640     4.2860 ca         1 4V3      -0.091000
     23 C24         13.4840     2.7900     5.5220 ca         1 4V3      -0.125000
     24 C25         12.6400     1.9520     6.2350 ca         1 4V3       0.002000
     25 O26          9.4870     1.2440     7.3880 o          1 4V3      -0.599300
     26 O27         10.5400    -0.7570     6.2940 o          1 4V3      -0.599300
     27 H1          -0.1590    -0.9750     0.4440 h1         1 4V3       0.037700
     28 H2          -0.1300    -0.0670    -1.0730 h1         1 4V3       0.037700
     29 H3           4.0200     1.0010    -0.3780 h1         1 4V3       0.046700
     30 H4           3.8650    -1.0090     1.8990 h1         1 4V3       0.118700
     31 H5           3.0720     1.9230     1.7830 h2         1 4V3       0.022700
     32 H6           1.5550     1.4880    -0.0540 h1         1 4V3       0.059700
     33 H7           2.2740    -1.4640    -0.0260 h1         1 4V3       0.066700
     34 H8           5.8140     1.1120     1.2710 hn         1 4V3       0.316500
     35 H9           2.3110    -1.2520    -2.1470 ho         1 4V3       0.416000
     36 H10          5.2750    -0.4650    -1.2560 ho         1 4V3       0.411000
     37 H12         -1.8170     0.6600     0.3030 ho         1 4V3       0.405000
     38 H13          7.7150    -0.9100     4.6950 h1         1 4V3       0.075200
     39 H14          6.9720     0.4940     5.4750 h1         1 4V3       0.075200
     40 H15          9.3000     1.7480     3.0610 ha         1 4V3       0.160000
     41 H16         11.5700     3.2990     2.7850 ha         1 4V3       0.138000
     42 H17         13.7400     3.9190     3.7270 ha         1 4V3       0.139000
     43 H18         14.4470     3.0720     5.9300 ha         1 4V3       0.143000
     44 H19         12.9420     1.5740     7.2050 ha         1 4V3       0.143000
     45 O11          3.0160     0.8700     3.5570 oh         1 4V3      -0.554800
     46 H11          2.4240     1.5040     3.9280 ho         1 4V3       0.414000
@<TRIPOS>BOND
     1    11     3 1
     2    13    15 1
     3    13     2 1
     4    10     8 1
     5     3     8 1
     6     3     4 1
     7     9     2 1
     8     9     4 1
     9    15    16 1
    10     2    14 2
    11     8     7 1
    12     4     5 1
    13    26    20 2
    14    16    17 2
    15    16    20 1
    16    17    18 1
    17     7     6 1
    18     7     1 1
    19     5     6 1
    20     5    45 1
    21    20    25 2
    22    20    19 1
    23     1    12 1
    24    18    19 ar
    25    18    21 ar
    26    19    24 ar
    27    21    22 ar
    28    24    23 ar
    29    22    23 ar
    30     1    27 1
    31     1    28 1
    32     3    29 1
    33     4    30 1
    34     5    31 1
    35     7    32 1
    36     8    33 1
    37     9    34 1
    38    10    35 1
    39    11    36 1
    40    45    46 1
    41    12    37 1
    42    15    38 1
    43    15    39 1
    44    17    40 1
    45    21    41 1
    46    22    42 1
    47    23    43 1
    48    24    44 1
@<TRIPOS>SUBSTRUCTURE
     1 4V3         1 TEMP              0 ****  ****    0 ROOT
