@<TRIPOS>MOLECULE
4V4
   48    49     1     0     0
SMALL
bcc


@<TRIPOS>ATOM
      1 N01          0.0000     0.0000     0.0000 nb         1 4V4      -0.591000
      2 C02          1.3240     0.0000     0.0000 ca         1 4V4       0.501200
      3 N02          2.0120    -0.0020    -1.2080 nv         1 4V4      -0.659500
      4 C03          2.0330     0.0000     1.1980 ca         1 4V4      -0.232300
      5 C04          1.3350     0.0010     2.3920 ca         1 4V4      -0.053300
      6 C05         -0.0520     0.0020     2.3490 ca         1 4V4      -0.223300
      7 C06         -0.6910     0.0020     1.1250 ca         1 4V4       0.384600
      8 C07          2.0650     0.0020     3.7090 c3         1 4V4       0.062200
      9 C08         -2.1970     0.0030     1.0710 c3         1 4V4      -0.066700
     10 C09         -2.6770     1.1840     0.2260 c3         1 4V4       0.028900
     11 C11         -4.1830     1.1840     0.1730 ca         1 4V4      -0.041300
     12 C12         -4.9080     1.8720     1.1280 ca         1 4V4      -0.162000
     13 C13         -6.2900     1.8760     1.0830 ca         1 4V4      -0.050000
     14 C14         -6.9510     1.1920     0.0820 ca         1 4V4      -0.200000
     15 C15         -6.2270     0.5000    -0.8800 ca         1 4V4       0.080600
     16 C16         -4.8380     0.5020    -0.8340 ca         1 4V4      -0.187000
     17 C17         -6.1270    -0.9240    -2.9070 c3         1 4V4       0.211100
     18 N17         -6.8920    -0.1940    -1.8920 nh         1 4V4      -0.392000
     19 C18         -8.3560    -0.1920    -1.9420 c3         1 4V4       0.170800
     20 C19         -8.8360     0.9900    -2.7860 c3         1 4V4       0.109800
     21 N20        -10.3040     0.9930    -2.8360 n7         1 4V4      -0.583200
     22 C21        -10.8030     2.1170    -3.6410 c3         1 4V4       0.180100
     23 HN02         2.2150    -0.8670    -1.6670 hn         1 4V4       0.274800
     24 HN0A         2.2830     0.8640    -1.6310 hn         1 4V4       0.274800
     25 H03          3.1160    -0.0000     1.1950 ha         1 4V4       0.120000
     26 H05         -0.6280     0.0030     3.2660 ha         1 4V4       0.118000
     27 H07          1.9740     0.9770     4.1720 hc         1 4V4       0.010367
     28 H07A         1.6340    -0.7480     4.3610 hc         1 4V4       0.010367
     29 H07B         3.1120    -0.2220     3.5430 hc         1 4V4       0.010367
     30 H08         -2.5430    -0.9230     0.6280 hc         1 4V4       0.024700
     31 H08A        -2.5930     0.0920     2.0760 hc         1 4V4       0.024700
     32 H09         -2.3320     2.1100     0.6690 hc         1 4V4       0.026200
     33 H09A        -2.2810     1.0940    -0.7780 hc         1 4V4       0.026200
     34 H12         -4.3910     2.4100     1.9140 ha         1 4V4       0.105000
     35 H13         -6.8540     2.4160     1.8340 ha         1 4V4       0.097000
     36 H14         -8.0340     1.1940     0.0490 ha         1 4V4       0.122000
     37 H16         -4.2700    -0.0370    -1.5830 ha         1 4V4       0.120000
     38 H17         -6.8070    -1.3640    -3.6250 h1         1 4V4       0.004700
     39 H17A        -5.4570    -0.2410    -3.4150 h1         1 4V4       0.004700
     40 H17B        -5.5500    -1.7070    -2.4290 h1         1 4V4       0.004700
     41 H18         -8.7040    -1.1170    -2.3850 h1         1 4V4       0.029200
     42 H18A        -8.7510    -0.1020    -0.9370 h1         1 4V4       0.029200
     43 H19         -8.4880     1.9150    -2.3430 h1         1 4V4       0.014700
     44 H19A        -8.4410     0.9000    -3.7910 h1         1 4V4       0.014700
     45 HN20       -10.6260     0.1310    -3.2310 hn         1 4V4       0.247800
     46 H21        -10.4460     3.0490    -3.2200 h1         1 4V4      -0.001300
     47 H21A       -11.8860     2.1100    -3.6390 h1         1 4V4      -0.001300
     48 H21B       -10.4440     2.0200    -4.6590 h1         1 4V4      -0.001300
@<TRIPOS>BOND
     1     1     2 ar  
     2     1     7 ar  
     3     2     3 1   
     4     2     4 ar  
     5     3    23 1   
     6     3    24 1   
     7     4     5 ar  
     8     4    25 1   
     9     5     6 ar  
    10     5     8 1   
    11     6     7 ar  
    12     6    26 1   
    13     7     9 1   
    14     8    27 1   
    15     8    28 1   
    16     8    29 1   
    17     9    10 1   
    18     9    30 1   
    19     9    31 1   
    20    10    11 1   
    21    10    32 1   
    22    10    33 1   
    23    11    12 ar  
    24    11    16 ar  
    25    12    13 ar  
    26    12    34 1   
    27    13    14 ar  
    28    13    35 1   
    29    14    15 ar  
    30    14    36 1   
    31    15    16 ar  
    32    15    18 1   
    33    16    37 1   
    34    17    18 1   
    35    17    38 1   
    36    17    39 1   
    37    17    40 1   
    38    18    19 1   
    39    19    20 1   
    40    19    41 1   
    41    19    42 1   
    42    20    21 1   
    43    20    43 1   
    44    20    44 1   
    45    21    22 1   
    46    21    45 1   
    47    22    46 1   
    48    22    47 1   
    49    22    48 1   
@<TRIPOS>SUBSTRUCTURE
     1 4V4         1 TEMP              0 ****  ****    0 ROOT
