@<TRIPOS>MOLECULE
molecule
   48    49     1     0     0
SMALL
bcc


@<TRIPOS>ATOM
      1 N01          0.0000     0.0000     0.0000 nb         1 4V4      -0.720000
      2 C02          1.3240     0.0000     0.0000 ca         1 4V4       0.682200
      3 N02          2.0120    -0.0020    -1.2080 nv         1 4V4      -1.084500
      4 C03          2.0330     0.0000     1.1980 ca         1 4V4      -0.263300
      5 C04          1.3350     0.0010     2.3920 ca         1 4V4      -0.043300
      6 C05         -0.0520     0.0020     2.3490 ca         1 4V4      -0.260300
      7 C06         -0.6910     0.0020     1.1250 ca         1 4V4       0.440600
      8 C07          2.0650     0.0020     3.7090 c3         1 4V4      -0.049800
      9 C08         -2.1970     0.0030     1.0710 c3         1 4V4      -0.120700
     10 C09         -2.6770     1.1840     0.2260 c3         1 4V4      -0.030100
     11 C11         -4.1830     1.1840     0.1730 ca         1 4V4      -0.042300
     12 C12         -4.9080     1.8720     1.1280 ca         1 4V4      -0.184000
     13 C13         -6.2900     1.8760     1.0830 ca         1 4V4      -0.084000
     14 C14         -6.9510     1.1920     0.0820 ca         1 4V4      -0.212000
     15 C15         -6.2270     0.5000    -0.8800 ca         1 4V4       0.204600
     16 C16         -4.8380     0.5020    -0.8340 ca         1 4V4      -0.202000
     17 C17         -6.1270    -0.9240    -2.9070 c3         1 4V4       0.232100
     18 N17         -6.8920    -0.1940    -1.8920 nh         1 4V4      -0.739000
     19 C18         -8.3560    -0.1920    -1.9420 c3         1 4V4       0.236800
     20 C19         -8.8360     0.9900    -2.7860 c3         1 4V4       0.126800
     21 N20        -10.3040     0.9930    -2.8360 n7         1 4V4      -0.822200
     22 C21        -10.8030     2.1170    -3.6410 c3         1 4V4       0.149100
     23 HN02         2.2150    -0.8670    -1.6670 hn         1 4V4       0.433800
     24 HN0A         2.2830     0.8640    -1.6310 hn         1 4V4       0.433800
     25 H03          3.1160    -0.0000     1.1950 ha         1 4V4       0.142000
     26 H05         -0.6280     0.0030     3.2660 ha         1 4V4       0.138000
     27 H07          1.9740     0.9770     4.1720 hc         1 4V4       0.047033
     28 H07A         1.6340    -0.7480     4.3610 hc         1 4V4       0.047033
     29 H07B         3.1120    -0.2220     3.5430 hc         1 4V4       0.047033
     30 H08         -2.5430    -0.9230     0.6280 hc         1 4V4       0.057700
     31 H08A        -2.5930     0.0920     2.0760 hc         1 4V4       0.057700
     32 H09         -2.3320     2.1100     0.6690 hc         1 4V4       0.059200
     33 H09A        -2.2810     1.0940    -0.7780 hc         1 4V4       0.059200
     34 H12         -4.3910     2.4100     1.9140 ha         1 4V4       0.126000
     35 H13         -6.8540     2.4160     1.8340 ha         1 4V4       0.127000
     36 H14         -8.0340     1.1940     0.0490 ha         1 4V4       0.137000
     37 H16         -4.2700    -0.0370    -1.5830 ha         1 4V4       0.135000
     38 H17         -6.8070    -1.3640    -3.6250 h1         1 4V4       0.034700
     39 H17A        -5.4570    -0.2410    -3.4150 h1         1 4V4       0.034700
     40 H17B        -5.5500    -1.7070    -2.4290 h1         1 4V4       0.034700
     41 H18         -8.7040    -1.1170    -2.3850 h1         1 4V4       0.055200
     42 H18A        -8.7510    -0.1020    -0.9370 h1         1 4V4       0.055200
     43 H19         -8.4880     1.9150    -2.3430 h1         1 4V4       0.040700
     44 H19A        -8.4410     0.9000    -3.7910 h1         1 4V4       0.040700
     45 HN20       -10.6260     0.1310    -3.2310 hn         1 4V4       0.347800
     46 H21        -10.4460     3.0490    -3.2200 h1         1 4V4       0.031700
     47 H21A       -11.8860     2.1100    -3.6390 h1         1 4V4       0.031700
     48 H21B       -10.4440     2.0200    -4.6590 h1         1 4V4       0.031700
@<TRIPOS>BOND
     1     1     2 ar  
     2     1     7 ar  
     3     2     3 1   
     4     2     4 ar  
     5     4     5 ar  
     6     5     6 ar  
     7     5     8 1   
     8     6     7 ar  
     9     7     9 1   
    10     9    10 1   
    11    10    11 1   
    12    11    12 ar  
    13    11    16 ar  
    14    12    13 ar  
    15    13    14 ar  
    16    14    15 ar  
    17    15    16 ar  
    18    15    18 1   
    19    17    18 1   
    20    18    19 1   
    21    19    20 1   
    22    20    21 1   
    23    21    22 1   
    24     3    23 1   
    25     3    24 1   
    26     4    25 1   
    27     6    26 1   
    28     8    27 1   
    29     8    28 1   
    30     8    29 1   
    31     9    30 1   
    32     9    31 1   
    33    10    32 1   
    34    10    33 1   
    35    12    34 1   
    36    13    35 1   
    37    14    36 1   
    38    16    37 1   
    39    17    38 1   
    40    17    39 1   
    41    17    40 1   
    42    19    41 1   
    43    19    42 1   
    44    20    43 1   
    45    20    44 1   
    46    21    45 1   
    47    22    46 1   
    48    22    47 1   
    49    22    48 1   
@<TRIPOS>SUBSTRUCTURE
     1 4V4         1 TEMP              0 ****  ****    0 ROOT
