@<TRIPOS>MOLECULE
molecule
   44    45     1     0     0
SMALL
bcc


@<TRIPOS>ATOM
      1 C21          0.0000     0.0000     0.0000 ca         1 4V5      -0.151000
      2 C01         -3.5970     3.9160     7.4460 c3         1 4V5       0.117100
      3 C02         -2.8180     2.6040     7.3050 c3         1 4V5       0.094700
      4 C03         -1.8300     2.4790     8.4670 c3         1 4V5       0.320900
      5 O04         -2.5420     2.5380     9.7050 os         1 4V5      -0.412600
      6 C05         -3.2500     3.7600     9.9130 c3         1 4V5       0.145100
      7 C06         -4.2960     3.9370     8.8090 c3         1 4V5       0.104100
      8 N07         -2.0860     2.6040     6.0360 ns         1 4V5      -0.570900
      9 O08         -4.9660     5.1880     8.9820 oh         1 4V5      -0.602800
     10 C10         -3.9470     3.7210    11.2740 c3         1 4V5       0.150400
     11 O11         -0.8870     3.5510     8.4080 oh         1 4V5      -0.629800
     12 O12         -2.9640     3.6720    12.3110 oh         1 4V5      -0.600800
     13 C13         -1.7540     1.4370     5.4490 c          1 4V5       0.657100
     14 C14         -1.0000     1.4370     4.1450 c3         1 4V5      -0.153400
     15 O15         -2.0620     0.3870     5.9720 o          1 4V5      -0.614100
     16 C16         -0.7510    -0.0060     3.7000 c3         1 4V5      -0.019100
     17 C17          0.0030    -0.0050     2.3950 ca         1 4V5      -0.098300
     18 C18          1.3850    -0.0120     2.3970 ca         1 4V5      -0.112500
     19 C19          2.0790     0.0000     1.2020 ca         1 4V5      -0.151000
     20 C20          1.3870     0.0000     0.0000 ca         1 4V5       0.102100
     21 C22         -0.6900     0.0000     1.1970 ca         1 4V5      -0.112500
     22 O23          2.0670    -0.0000    -1.1770 oh         1 4V5      -0.523100
     23 H1          -0.5420     0.0020    -0.9380 ha         1 4V5       0.140000
     24 H2          -2.9100     4.7510     7.3800 h1         1 4V5       0.064700
     25 H3          -3.5100     1.7700     7.3290 h1         1 4V5       0.107700
     26 H4          -1.3100     1.5310     8.3960 h2         1 4V5       0.092700
     27 H5          -2.5530     4.5890     9.8830 h1         1 4V5       0.078700
     28 H6          -5.0130     3.1270     8.8590 h1         1 4V5       0.056700
     29 H7          -1.8440     3.4710     5.5970 hn         1 4V5       0.321500
     30 H8          -5.8930     5.0670     8.8600 ho         1 4V5       0.412000
     31 H10         -4.5770     2.8410    11.3320 h1         1 4V5       0.034200
     32 H11         -4.5550     4.6090    11.3950 h1         1 4V5       0.034200
     33 H12         -0.0550     3.2570     8.7410 ho         1 4V5       0.418000
     34 H13         -3.3910     3.7150    13.1510 ho         1 4V5       0.402000
     35 H14         -0.0510     1.9430     4.2760 hc         1 4V5       0.064700
     36 H15         -1.5830     1.9520     3.3910 hc         1 4V5       0.064700
     37 H16         -0.1680    -0.5210     4.4540 hc         1 4V5       0.065700
     38 H17         -1.7000    -0.5120     3.5690 hc         1 4V5       0.065700
     39 H18          1.9250    -0.0120     3.3360 ha         1 4V5       0.134500
     40 H19          3.1620    -0.0030     1.2040 ha         1 4V5       0.140000
     41 H20         -1.7730     0.0000     1.1980 ha         1 4V5       0.134500
     42 H21          2.2220    -0.8890    -1.4500 ho         1 4V5       0.419000
     43 O09         -4.5720     4.0080     6.4050 oh         1 4V5      -0.602800
     44 H9          -4.5310     4.8630     6.0110 ho         1 4V5       0.409000
@<TRIPOS>BOND
     1    12    10 1
     2    10     6 1
     3    22    20 1
     4     5     6 1
     5     5     4 1
     6     6     7 1
     7     7     9 1
     8     7     2 1
     9    20    19 ar
    10    20     1 ar
    11    19    18 ar
    12     4     3 1
    13     4    11 1
    14    15    13 2
    15     3     2 1
    16     3     8 1
    17    43     2 1
    18     1    21 ar
    19    18    17 ar
    20    13     8 1
    21    13    14 1
    22    21    17 ar
    23    17    16 1
    24    16    14 1
    25     1    23 1
    26     2    24 1
    27     3    25 1
    28     4    26 1
    29     6    27 1
    30     7    28 1
    31     8    29 1
    32     9    30 1
    33    43    44 1
    34    10    31 1
    35    10    32 1
    36    11    33 1
    37    12    34 1
    38    14    35 1
    39    14    36 1
    40    16    37 1
    41    16    38 1
    42    18    39 1
    43    19    40 1
    44    21    41 1
    45    22    42 1
@<TRIPOS>SUBSTRUCTURE
     1 4V5         1 TEMP              0 ****  ****    0 ROOT
