@<TRIPOS>MOLECULE
4V5
   44    45     1     0     0
SMALL
bcc


@<TRIPOS>ATOM
      1 C21          0.0000     0.0000     0.0000 ca         1 4V5      -0.137000
      2 C01         -3.5970     3.9160     7.4460 c3         1 4V5       0.158100
      3 C02         -2.8180     2.6040     7.3050 c3         1 4V5      -0.028300
      4 C03         -1.8300     2.4790     8.4670 c3         1 4V5       0.385900
      5 O04         -2.5420     2.5380     9.7050 os         1 4V5      -0.398600
      6 C05         -3.2500     3.7600     9.9130 c3         1 4V5       0.163100
      7 C06         -4.2960     3.9370     8.8090 c3         1 4V5       0.141100
      8 N07         -2.0860     2.6040     6.0360 ns         1 4V5      -0.171900
      9 O08         -4.9660     5.1880     8.9820 oh         1 4V5      -0.583800
     10 C10         -3.9470     3.7210    11.2740 c3         1 4V5       0.225400
     11 O11         -0.8870     3.5510     8.4080 oh         1 4V5      -0.615800
     12 O12         -2.9640     3.6720    12.3110 oh         1 4V5      -0.583800
     13 C13         -1.7540     1.4370     5.4490 c          1 4V5       0.569100
     14 C14         -1.0000     1.4370     4.1450 c3         1 4V5      -0.094400
     15 O15         -2.0620     0.3870     5.9720 o          1 4V5      -0.653100
     16 C16         -0.7510    -0.0060     3.7000 c3         1 4V5       0.046900
     17 C17          0.0030    -0.0050     2.3950 ca         1 4V5      -0.112300
     18 C18          1.3850    -0.0120     2.3970 ca         1 4V5      -0.078500
     19 C19          2.0790     0.0000     1.2020 ca         1 4V5      -0.137000
     20 C20          1.3870     0.0000     0.0000 ca         1 4V5       0.120100
     21 C22         -0.6900     0.0000     1.1970 ca         1 4V5      -0.078500
     22 O23          2.0670    -0.0000    -1.1770 oh         1 4V5      -0.502100
     23 H1          -0.5420     0.0020    -0.9380 ha         1 4V5       0.113000
     24 H2          -2.9100     4.7510     7.3800 h1         1 4V5       0.029700
     25 H3          -3.5100     1.7700     7.3290 h1         1 4V5       0.081700
     26 H4          -1.3100     1.5310     8.3960 h2         1 4V5       0.040700
     27 H5          -2.5530     4.5890     9.8830 h1         1 4V5       0.043700
     28 H6          -5.0130     3.1270     8.8590 h1         1 4V5       0.023700
     29 H7          -1.8440     3.4710     5.5970 hn         1 4V5       0.177500
     30 H8          -5.8930     5.0670     8.8600 ho         1 4V5       0.398000
     31 H10         -4.5770     2.8410    11.3320 h1         1 4V5      -0.003800
     32 H11         -4.5550     4.6090    11.3950 h1         1 4V5      -0.003800
     33 H12         -0.0550     3.2570     8.7410 ho         1 4V5       0.406000
     34 H13         -3.3910     3.7150    13.1510 ho         1 4V5       0.388000
     35 H14         -0.0510     1.9430     4.2760 hc         1 4V5       0.030700
     36 H15         -1.5830     1.9520     3.3910 hc         1 4V5       0.030700
     37 H16         -0.1680    -0.5210     4.4540 hc         1 4V5       0.033700
     38 H17         -1.7000    -0.5120     3.5690 hc         1 4V5       0.033700
     39 H18          1.9250    -0.0120     3.3360 ha         1 4V5       0.106500
     40 H19          3.1620    -0.0030     1.2040 ha         1 4V5       0.113000
     41 H20         -1.7730     0.0000     1.1980 ha         1 4V5       0.106500
     42 H21          2.2220    -0.8890    -1.4500 ho         1 4V5       0.402000
     43 O09         -4.5720     4.0080     6.4050 oh         1 4V5      -0.585800
     44 H9          -4.5310     4.8630     6.0110 ho         1 4V5       0.397000
@<TRIPOS>BOND
     1     1    20 ar  
     2     1    21 ar  
     3     1    23 1   
     4     2     3 1   
     5     2     7 1   
     6     2    24 1   
     7     2    43 1   
     8     3     4 1   
     9     3     8 1   
    10     3    25 1   
    11     4     5 1   
    12     4    11 1   
    13     4    26 1   
    14     5     6 1   
    15     6     7 1   
    16     6    10 1   
    17     6    27 1   
    18     7     9 1   
    19     7    28 1   
    20     8    13 1   
    21     8    29 1   
    22     9    30 1   
    23    10    12 1   
    24    10    31 1   
    25    10    32 1   
    26    11    33 1   
    27    12    34 1   
    28    13    14 1   
    29    13    15 2   
    30    14    16 1   
    31    14    35 1   
    32    14    36 1   
    33    16    17 1   
    34    16    37 1   
    35    16    38 1   
    36    17    18 ar  
    37    17    21 ar  
    38    18    19 ar  
    39    18    39 1   
    40    19    20 ar  
    41    19    40 1   
    42    20    22 1   
    43    21    41 1   
    44    22    42 1   
    45    43    44 1   
@<TRIPOS>SUBSTRUCTURE
     1 4V5         1 TEMP              0 ****  ****    0 ROOT
