@<TRIPOS>MOLECULE
4V6
   29    30     1     0     0
SMALL
bcc


@<TRIPOS>ATOM
      1 C1           0.0000     0.0000     0.0000 ca         1 4V6       0.031000
      2 C2           1.3790     0.0000     0.0000 ca         1 4V6      -0.153500
      3 C3           2.0930     0.0000     1.1900 ca         1 4V6       0.106600
      4 C4           1.3820    -0.0250     2.3930 ca         1 4V6      -0.117000
      5 C5           0.0030    -0.0260     2.3920 ca         1 4V6      -0.042000
      6 C6          -0.6950    -0.0030     1.1980 ca         1 4V6      -0.074600
      7 S1           2.2480    -0.0190    -1.5410 sy         1 4V6       1.051200
      8 N1           3.8520     0.1520    -1.0990 n3         1 4V6      -0.572500
      9 C7           4.2210    -0.5380     0.1550 c3         1 4V6       0.372700
     10 N2           3.4780     0.0450     1.2640 nh         1 4V6      -0.406000
     11 Cl1         -2.4310     0.0100     1.2000 cl         1 4V6      -0.010400
     12 C8           3.9460     1.4070     1.5530 c3         1 4V6       0.184100
     13 C9           3.8820    -2.0260     0.0390 c3         1 4V6      -0.038100
     14 C10          4.8120     0.9230    -1.8900 c3         1 4V6       0.306100
     15 O1           2.1060    -1.3270    -2.0800 o          1 4V6      -0.576300
     16 O2           1.8830     1.1630    -2.2370 o          1 4V6      -0.576300
     17 H1          -0.5410     0.0180    -0.9390 ha         1 4V6       0.123000
     18 H2           1.9180    -0.0440     3.3340 ha         1 4V6       0.120000
     19 H3          -0.5360    -0.0290     3.3310 ha         1 4V6       0.114000
     20 H4           5.2830    -0.4180     0.3310 h2         1 4V6       0.044700
     21 H5           3.4120     2.1120     0.9280 h1         1 4V6       0.010367
     22 H6           3.7640     1.6380     2.5950 h1         1 4V6       0.010367
     23 H7           5.0080     1.4750     1.3480 h1         1 4V6       0.010367
     24 H8           4.3090    -2.4240    -0.8740 hc         1 4V6       0.028700
     25 H9           2.8060    -2.1500     0.0190 hc         1 4V6       0.028700
     26 H10          4.2910    -2.5570     0.8900 hc         1 4V6       0.028700
     27 H11          4.7230     0.6490    -2.9350 h1         1 4V6      -0.000300
     28 H12          4.6070     1.9810    -1.7760 h1         1 4V6      -0.000300
     29 H13          5.8170     0.7110    -1.5460 h1         1 4V6      -0.000300
@<TRIPOS>BOND
     1     1     2 ar  
     2     1     6 ar  
     3     1    17 1   
     4     2     3 ar  
     5     2     7 1   
     6     3     4 ar  
     7     3    10 1   
     8     4     5 ar  
     9     4    18 1   
    10     5     6 ar  
    11     5    19 1   
    12     6    11 1   
    13     7     8 1   
    14     7    15 2   
    15     7    16 2   
    16     8     9 1   
    17     8    14 1   
    18     9    10 1   
    19     9    13 1   
    20     9    20 1   
    21    10    12 1   
    22    12    21 1   
    23    12    22 1   
    24    12    23 1   
    25    13    24 1   
    26    13    25 1   
    27    13    26 1   
    28    14    27 1   
    29    14    28 1   
    30    14    29 1   
@<TRIPOS>SUBSTRUCTURE
     1 4V6         1 TEMP              0 ****  ****    0 ROOT
