@<TRIPOS>MOLECULE
4V7
   61    65     1     0     0
SMALL
bcc


@<TRIPOS>ATOM
      1 N            0.0000     0.0000     0.0000 nb         1 4V7      -0.548000
      2 C            1.3660    -0.0010     2.3930 ca         1 4V7      -0.044000
      3 O           -4.6380    -0.0040     2.3990 oh         1 4V7      -0.602800
      4 F1           3.3920    -0.0000     1.1570 f          1 4V7      -0.123900
      5 C1           2.0410     0.0000     1.1830 ca         1 4V7      -0.042400
      6 C2           1.3160     0.0000     0.0000 ca         1 4V7       0.384200
      7 C3          -0.6980    -0.0010     1.1280 ca         1 4V7       0.199800
      8 N1          -2.0480    -0.0020     1.3960 na         1 4V7       0.303900
      9 C6          -2.2640    -0.0040     2.7410 cc         1 4V7      -0.220300
     10 C7          -3.6190    -0.0040     3.4010 c3         1 4V7       0.294600
     11 C5          -1.0760    -0.0040     3.3980 cd         1 4V7      -0.236000
     12 C4          -0.0280    -0.0030     2.3650 ca         1 4V7      -0.152100
     13 C8          -0.8740    -0.0030     4.8620 ca         1 4V7       0.760800
     14 N3          -1.9350    -0.0040     5.6620 nb         1 4V7      -0.711000
     15 C11         -1.7860    -0.0050     6.9820 ca         1 4V7       0.540200
     16 C10         -0.4960    -0.0040     7.5190 ca         1 4V7      -0.241700
     17 F           -0.3050    -0.0060     8.8570 f          1 4V7      -0.119900
     18 C9           0.5820    -0.0040     6.6520 ca         1 4V7       0.474200
     19 N2           0.3610    -0.0090     5.3460 nb         1 4V7      -0.666000
     20 N4          -2.8960    -0.0050     7.8140 nu         1 4V7      -0.486900
     21 C12         -4.2430    -0.0040     7.2390 c3         1 4V7       0.138500
     22 C17         -5.2260     0.6050     8.2410 c3         1 4V7      -0.050400
     23 C16         -6.6330     0.6050     7.6410 c3         1 4V7       0.042700
     24 C15         -7.0520    -0.8310     7.3240 c3         1 4V7      -0.050400
     25 C14         -6.0710    -1.4410     6.3220 c3         1 4V7      -0.014400
     26 C13         -4.6630    -1.4410     6.9220 c3         1 4V7      -0.050400
     27 N5          -7.5730     1.1880     8.6000 ns         1 4V7      -0.222900
     28 C18         -8.7150     1.7550     8.1650 c          1 4V7       0.615100
     29 O1          -8.9660     1.7820     6.9760 o          1 4V7      -0.705100
     30 N6          -9.5810     2.2920     9.0480 n          1 4V7      -0.189800
     31 C22         -9.4000     2.3340    10.5100 c3         1 4V7       0.062000
     32 C21        -10.2660     3.5280    10.9830 c3         1 4V7      -0.032900
     33 C20        -11.4900     3.4200    10.0340 c3         1 4V7      -0.032900
     34 C19        -10.8580     2.9390     8.7120 c3         1 4V7       0.062000
     35 H3           1.8890     0.2580     3.3050 ha         1 4V7       0.143000
     36 H7          -5.0330     0.8510     2.3530 ho         1 4V7       0.397000
     37 H4           1.8460     0.0010    -0.9450 h4         1 4V7      -0.008900
     38 H           -2.7690    -0.0020     0.7020 hn         1 4V7       0.130700
     39 H6          -3.7190    -0.8890     4.0180 h1         1 4V7       0.029700
     40 H5          -3.7200     0.8800     4.0190 h1         1 4V7       0.029700
     41 H8           1.5950    -0.0060     7.0360 h4         1 4V7      -0.005900
     42 H9          -2.7760     0.0110     8.8070 hn         1 4V7       0.303800
     43 H1          -4.2510     0.5810     6.3270 h1         1 4V7       0.056700
     44 H16         -5.2230     0.0170     9.1510 hc         1 4V7       0.022200
     45 H17         -4.9290     1.6230     8.4620 hc         1 4V7       0.022200
     46 H2          -6.6330     1.1880     6.7280 h1         1 4V7       0.060700
     47 H15         -8.0480    -0.8290     6.8960 hc         1 4V7       0.027200
     48 H14         -7.0470    -1.4170     8.2350 hc         1 4V7       0.027200
     49 H13         -6.0740    -0.8540     5.4120 hc         1 4V7       0.021200
     50 H12         -6.3680    -2.4600     6.1020 hc         1 4V7       0.021200
     51 H10         -3.9690    -1.8700     6.2100 hc         1 4V7       0.025700
     52 H11         -4.6600    -2.0260     7.8340 hc         1 4V7       0.025700
     53 H18         -7.3690     1.1620     9.5800 hn         1 4V7       0.172500
     54 H26         -8.3590     2.5050    10.7560 h1         1 4V7       0.016950
     55 H25         -9.7540     1.4130    10.9590 h1         1 4V7       0.016950
     56 H24        -10.5670     3.4010    12.0160 hc         1 4V7       0.024700
     57 H23         -9.7450     4.4660    10.8350 hc         1 4V7       0.024700
     58 H22        -11.9580     4.3880     9.9030 hc         1 4V7       0.024700
     59 H21        -12.1990     2.6900    10.4060 hc         1 4V7       0.024700
     60 H20        -10.6800     3.7850     8.0600 h1         1 4V7       0.016950
     61 H19        -11.5150     2.2250     8.2290 h1         1 4V7       0.016950
@<TRIPOS>BOND
     1     1     6 ar  
     2     1     7 ar  
     3     2     5 ar  
     4     2    12 ar  
     5     2    35 1   
     6     3    10 1   
     7     3    36 1   
     8     4     5 1   
     9     5     6 ar  
    10     6    37 1   
    11     7     8 1   
    12     7    12 ar  
    13     8     9 1   
    14     8    38 1   
    15     9    10 1   
    16     9    11 2   
    17    10    39 1   
    18    10    40 1   
    19    11    12 1   
    20    11    13 1   
    21    13    14 ar  
    22    13    19 ar  
    23    14    15 ar  
    24    15    16 ar  
    25    15    20 1   
    26    16    17 1   
    27    16    18 ar  
    28    18    19 ar  
    29    18    41 1   
    30    20    21 1   
    31    20    42 1   
    32    21    22 1   
    33    21    26 1   
    34    21    43 1   
    35    22    23 1   
    36    22    44 1   
    37    22    45 1   
    38    23    24 1   
    39    23    27 1   
    40    23    46 1   
    41    24    25 1   
    42    24    47 1   
    43    24    48 1   
    44    25    26 1   
    45    25    49 1   
    46    25    50 1   
    47    26    51 1   
    48    26    52 1   
    49    27    28 1   
    50    27    53 1   
    51    28    29 2   
    52    28    30 1   
    53    30    31 1   
    54    30    34 1   
    55    31    32 1   
    56    31    54 1   
    57    31    55 1   
    58    32    33 1   
    59    32    56 1   
    60    32    57 1   
    61    33    34 1   
    62    33    58 1   
    63    33    59 1   
    64    34    60 1   
    65    34    61 1   
@<TRIPOS>SUBSTRUCTURE
     1 4V7         1 TEMP              0 ****  ****    0 ROOT
