@<TRIPOS>MOLECULE
molecule
   50    54     1     0     0
SMALL
bcc


@<TRIPOS>ATOM
      1 C2           0.0000     0.0000     0.0000 cc         1 4V8      -0.017300
      2 C3           1.3590     0.0000     0.0000 cd         1 4V8      -0.305600
      3 C11         -1.9880    -0.8470    -1.2670 ca         1 4V8      -0.241800
      4 C12         -2.7790    -0.8110    -2.3960 ca         1 4V8       0.424700
      5 C14         -1.4660     0.8240    -3.3620 ca         1 4V8       0.424700
      6 C15         -0.6210     0.8540    -2.2710 ca         1 4V8      -0.241800
      7 C16          4.4770     1.1830    -1.2990 cd         1 4V8       0.273000
      8 C17          5.7150     1.5450    -0.7270 cd         1 4V8      -0.288000
      9 C18          6.5140     2.4290    -1.3620 cc         1 4V8       0.040600
     10 C20          4.9700     2.6570    -3.1270 c          1 4V8       0.711700
     11 C21          4.1070     1.7480    -2.5090 cc         1 4V8      -0.387200
     12 C24          6.7080     5.3280    -2.7470 ca         1 4V8      -0.120300
     13 C25          7.3460     5.8550    -1.6370 ca         1 4V8      -0.107000
     14 C26          7.0460     7.1350    -1.2110 ca         1 4V8      -0.132000
     15 C27          6.1100     7.8890    -1.8930 ca         1 4V8      -0.119000
     16 C28          5.4730     7.3640    -3.0010 ca         1 4V8      -0.132000
     17 C29          5.7770     6.0860    -3.4320 ca         1 4V8      -0.107000
     18 N1          -0.4030     0.0040     1.3050 na         1 4V8      -0.041600
     19 C4           1.7950     0.0000     1.3320 cd         1 4V8       0.349600
     20 N5           0.7480     0.0010     2.1080 nc         1 4V8      -0.493800
     21 C6           2.2960    -0.0010    -1.1840 c3         1 4V8       0.318100
     22 N7           3.6490     0.2750    -0.6640 nh         1 4V8      -0.715400
     23 C8           4.0980    -0.4340     0.5410 c3         1 4V8       0.228800
     24 C9           3.2490     0.0060     1.7400 c3         1 4V8      -0.120700
     25 C10         -0.8770     0.0020    -1.1910 ca         1 4V8       0.002000
     26 N13         -2.5020     0.0070    -3.3930 nb         1 4V8      -0.685000
     27 N19          6.1430     2.9770    -2.5500 n          1 4V8      -0.324000
     28 O22          4.6590     3.1640    -4.1940 o          1 4V8      -0.681500
     29 H1          -2.2210    -1.5220    -0.4530 ha         1 4V8       0.146500
     30 H2          -3.6400    -1.4640    -2.4640 h4         1 4V8       0.029600
     31 H3          -1.2760     1.4790    -4.2030 h4         1 4V8       0.029600
     32 H4           0.2280     1.5270    -2.2520 ha         1 4V8       0.146500
     33 H5           6.0230     1.1160     0.2190 ha         1 4V8       0.145000
     34 H6           7.4640     2.7040    -0.9200 h4         1 4V8       0.151000
     35 H7           3.1620     1.4880    -2.9700 ha         1 4V8       0.160000
     36 H8           6.9010     3.8690    -4.2840 h1         1 4V8       0.073200
     37 H9           8.0630     3.7010    -2.9600 h1         1 4V8       0.073200
     38 H10          8.0800     5.2640    -1.1030 ha         1 4V8       0.139000
     39 H11          7.5460     7.5470    -0.3430 ha         1 4V8       0.131000
     40 H12          5.8740     8.8920    -1.5570 ha         1 4V8       0.129000
     41 H13          4.7410     7.9560    -3.5370 ha         1 4V8       0.131000
     42 H14          5.2770     5.6740    -4.3000 ha         1 4V8       0.139000
     43 H15         -1.3460     0.0820     1.6290 hn         1 4V8       0.334700
     44 H16          2.2780    -0.9700    -1.6670 h1         1 4V8       0.062700
     45 H17          2.0060     0.7740    -1.8840 h1         1 4V8       0.062700
     46 H18          3.9390    -1.4940     0.3870 h1         1 4V8       0.061200
     47 H19          5.1260    -0.1530     0.7350 h1         1 4V8       0.061200
     48 H20          3.3820    -0.7180     2.5350 hc         1 4V8       0.071200
     49 H21          3.5250     1.0220     1.9970 hc         1 4V8       0.071200
     50 C23          7.0350     3.9330    -3.2100 c3         1 4V8       0.137300
@<TRIPOS>BOND
     1    24    23 1   
     2    24    19 1   
     3    23    22 1   
     4    20    19 2   
     5    20    18 1   
     6    19     2 1   
     7    28    10 2   
     8    11     7 2   
     9    11    10 1   
    10    22     7 1   
    11    22    21 1   
    12    15    14 ar  
    13    15    16 ar  
    14    18     1 1   
    15     2    21 1   
    16     2     1 2   
    17    14    13 ar  
    18    16    17 ar  
    19     7     8 1   
    20    10    27 1   
    21     1    25 1   
    22    13    12 ar  
    23    17    12 ar  
    24    12    50 1   
    25    27    50 1   
    26    27     9 1   
    27     8     9 2   
    28     3    25 ar  
    29     3     4 ar  
    30    25     6 ar  
    31     4    26 ar  
    32     6     5 ar  
    33    26     5 ar  
    34     3    29 1   
    35     4    30 1   
    36     5    31 1   
    37     6    32 1   
    38     8    33 1   
    39     9    34 1   
    40    11    35 1   
    41    50    36 1   
    42    50    37 1   
    43    13    38 1   
    44    14    39 1   
    45    15    40 1   
    46    16    41 1   
    47    17    42 1   
    48    18    43 1   
    49    21    44 1   
    50    21    45 1   
    51    23    46 1   
    52    23    47 1   
    53    24    48 1   
    54    24    49 1   
@<TRIPOS>SUBSTRUCTURE
     1 4V8         1 TEMP              0 ****  ****    0 ROOT
