@<TRIPOS>MOLECULE
4V8
   50    54     1     0     0
SMALL
bcc


@<TRIPOS>ATOM
      1 C2           0.0000     0.0000     0.0000 cc         1 4V8      -0.178300
      2 C3           1.3590     0.0000     0.0000 cd         1 4V8      -0.322600
      3 C11         -1.9880    -0.8470    -1.2670 ca         1 4V8      -0.216300
      4 C12         -2.7790    -0.8110    -2.3960 ca         1 4V8       0.412200
      5 C14         -1.4660     0.8240    -3.3620 ca         1 4V8       0.412200
      6 C15         -0.6210     0.8540    -2.2710 ca         1 4V8      -0.216300
      7 C16          4.4770     1.1830    -1.2990 cc         1 4V8       0.144000
      8 C17          5.7150     1.5450    -0.7270 cc         1 4V8      -0.266000
      9 C18          6.5140     2.4290    -1.3620 cd         1 4V8      -0.093400
     10 C20          4.9700     2.6570    -3.1270 c          1 4V8       0.623700
     11 C21          4.1070     1.7480    -2.5090 cd         1 4V8      -0.386200
     12 C24          6.7080     5.3280    -2.7470 ca         1 4V8      -0.131300
     13 C25          7.3460     5.8550    -1.6370 ca         1 4V8      -0.081000
     14 C26          7.0460     7.1350    -1.2110 ca         1 4V8      -0.104500
     15 C27          6.1100     7.8890    -1.8930 ca         1 4V8      -0.092000
     16 C28          5.4730     7.3640    -3.0010 ca         1 4V8      -0.104500
     17 C29          5.7770     6.0860    -3.4320 ca         1 4V8      -0.081000
     18 N1          -0.4030     0.0040     1.3050 na         1 4V8       0.447400
     19 C4           1.7950     0.0000     1.3320 cd         1 4V8       0.369600
     20 N5           0.7480     0.0010     2.1080 nc         1 4V8      -0.638800
     21 C6           2.2960    -0.0010    -1.1840 c3         1 4V8       0.269100
     22 N7           3.6490     0.2750    -0.6640 nh         1 4V8      -0.357400
     23 C8           4.0980    -0.4340     0.5410 c3         1 4V8       0.155800
     24 C9           3.2490     0.0060     1.7400 c3         1 4V8      -0.053700
     25 C10         -0.8770     0.0020    -1.1910 ca         1 4V8       0.014000
     26 N13         -2.5020     0.0070    -3.3930 nb         1 4V8      -0.578000
     27 N19          6.1430     2.9770    -2.5500 n          1 4V8       0.107000
     28 O22          4.6590     3.1640    -4.1940 o          1 4V8      -0.730500
     29 H1          -2.2210    -1.5220    -0.4530 ha         1 4V8       0.121500
     30 H2          -3.6400    -1.4640    -2.4640 h4         1 4V8      -0.016400
     31 H3          -1.2760     1.4790    -4.2030 h4         1 4V8      -0.016400
     32 H4           0.2280     1.5270    -2.2520 ha         1 4V8       0.121500
     33 H5           6.0230     1.1160     0.2190 ha         1 4V8       0.131000
     34 H6           7.4640     2.7040    -0.9200 h4         1 4V8       0.122000
     35 H7           3.1620     1.4880    -2.9700 ha         1 4V8       0.148000
     36 H8           6.9010     3.8690    -4.2840 h1         1 4V8       0.044700
     37 H9           8.0630     3.7010    -2.9600 h1         1 4V8       0.044700
     38 H10          8.0800     5.2640    -1.1030 ha         1 4V8       0.116000
     39 H11          7.5460     7.5470    -0.3430 ha         1 4V8       0.104000
     40 H12          5.8740     8.8920    -1.5570 ha         1 4V8       0.102000
     41 H13          4.7410     7.9560    -3.5370 ha         1 4V8       0.104000
     42 H14          5.2770     5.6740    -4.3000 ha         1 4V8       0.116000
     43 H15         -1.3460     0.0820     1.6290 hn         1 4V8       0.152700
     44 H16          2.2780    -0.9700    -1.6670 h1         1 4V8       0.034700
     45 H17          2.0060     0.7740    -1.8840 h1         1 4V8       0.034700
     46 H18          3.9390    -1.4940     0.3870 h1         1 4V8       0.034700
     47 H19          5.1260    -0.1530     0.7350 h1         1 4V8       0.034700
     48 H20          3.3820    -0.7180     2.5350 hc         1 4V8       0.036200
     49 H21          3.5250     1.0220     1.9970 hc         1 4V8       0.036200
     50 C23          7.0350     3.9330    -3.2100 c3         1 4V8       0.071300
@<TRIPOS>BOND
     1     1     2 2   
     2     1    18 1   
     3     1    25 1   
     4     2    19 1   
     5     2    21 1   
     6     3     4 ar  
     7     3    25 ar  
     8     3    29 1   
     9     4    26 ar  
    10     4    30 1   
    11     5     6 ar  
    12     5    26 ar  
    13     5    31 1   
    14     6    25 ar  
    15     6    32 1   
    16     7     8 1   
    17     7    11 2   
    18     7    22 1   
    19     8     9 2   
    20     8    33 1   
    21     9    27 1   
    22     9    34 1   
    23    10    11 1   
    24    10    27 1   
    25    10    28 2   
    26    11    35 1   
    27    12    13 ar  
    28    12    17 ar  
    29    12    50 1   
    30    13    14 ar  
    31    13    38 1   
    32    14    15 ar  
    33    14    39 1   
    34    15    16 ar  
    35    15    40 1   
    36    16    17 ar  
    37    16    41 1   
    38    17    42 1   
    39    18    20 1   
    40    18    43 1   
    41    19    20 2   
    42    19    24 1   
    43    21    22 1   
    44    21    44 1   
    45    21    45 1   
    46    22    23 1   
    47    23    24 1   
    48    23    46 1   
    49    23    47 1   
    50    24    48 1   
    51    24    49 1   
    52    27    50 1   
    53    36    50 1   
    54    37    50 1   
@<TRIPOS>SUBSTRUCTURE
     1 4V8         1 TEMP              0 ****  ****    0 ROOT
