@<TRIPOS>MOLECULE
4V9
   37    40     1     0     0
SMALL
bcc


@<TRIPOS>ATOM
      1 C1           0.0000     0.0000     0.0000 ca         1 4V9       0.490200
      2 C2          -0.0590     0.0090     2.3070 ca         1 4V9       0.433200
      3 C3           1.3190    -0.0010     2.3820 ca         1 4V9      -0.255300
      4 C11         -4.1160    -0.1950    -2.6480 cc         1 4V9      -0.177300
      5 C12         -5.1730    -0.6630    -1.7250 ca         1 4V9      -0.026000
      6 C13         -6.4450    -0.0900    -1.7700 ca         1 4V9      -0.066000
      7 C14         -7.4270    -0.5290    -0.9070 ca         1 4V9      -0.129000
      8 C15         -7.1520    -1.5360     0.0040 ca         1 4V9       0.108900
      9 C16         -5.8910    -2.1070     0.0530 ca         1 4V9      -0.129000
     10 C17         -4.9030    -1.6800    -0.8100 ca         1 4V9      -0.066000
     11 F           -8.1170    -1.9620     0.8480 f          1 4V9      -0.126900
     12 C7          -2.8270     0.0810    -2.3240 cd         1 4V9      -0.312600
     13 C6          -2.1450    -0.0140    -0.9820 c3         1 4V9       0.249100
     14 N4          -4.2520     0.0340    -3.9880 na         1 4V9       0.434400
     15 N3          -3.0090     0.4640    -4.4790 nc         1 4V9      -0.640800
     16 C8          -2.1650     0.4940    -3.4910 cd         1 4V9       0.369600
     17 C9          -0.7080     0.8930    -3.5000 c3         1 4V9      -0.027700
     18 C10         -0.2840     1.1410    -2.0450 c3         1 4V9       0.138800
     19 N1          -0.6890     0.0000    -1.2070 nh         1 4V9      -0.470300
     20 C5           1.3910     0.0000     0.0000 ca         1 4V9      -0.247300
     21 C4           2.0630     0.0000     1.2090 ca         1 4V9      -0.042000
     22 N2          -0.6750     0.0040     1.1400 nb         1 4V9      -0.631000
     23 H1          -0.6430     0.0100     3.2200 h4         1 4V9      -0.021900
     24 H2           1.8160     0.0010     3.3450 ha         1 4V9       0.114000
     25 H3          -6.6600     0.6970    -2.4820 ha         1 4V9       0.116500
     26 H4          -8.4150    -0.0860    -0.9420 ha         1 4V9       0.121500
     27 H5          -5.6820    -2.8960     0.7660 ha         1 4V9       0.121500
     28 H6          -3.9170    -2.1270    -0.7700 ha         1 4V9       0.116500
     29 H7          -2.4100     0.8610    -0.4010 h1         1 4V9       0.035200
     30 H8          -2.4120    -0.9620    -0.5300 h1         1 4V9       0.035200
     31 H9          -5.0700    -0.1460    -4.5360 hn         1 4V9       0.150700
     32 H10         -0.5810     1.8000    -4.0780 hc         1 4V9       0.030200
     33 H11         -0.1120     0.0930    -3.9230 hc         1 4V9       0.030200
     34 H12         -0.7630     2.0420    -1.6800 h1         1 4V9       0.021200
     35 H13          0.7920     1.2550    -1.9990 h1         1 4V9       0.021200
     36 H14          1.9400     0.0010    -0.9340 ha         1 4V9       0.124000
     37 H15          3.1460    -0.0040     1.2390 ha         1 4V9       0.106000
@<TRIPOS>BOND
     1     1    19 1   
     2     1    20 ar  
     3     1    22 ar  
     4     2     3 ar  
     5     2    22 ar  
     6     2    23 1   
     7     3    21 ar  
     8     3    24 1   
     9     4     5 1   
    10     4    12 2   
    11     4    14 1   
    12     5     6 ar  
    13     5    10 ar  
    14     6     7 ar  
    15     6    25 1   
    16     7     8 ar  
    17     7    26 1   
    18     8     9 ar  
    19     8    11 1   
    20     9    10 ar  
    21     9    27 1   
    22    10    28 1   
    23    12    13 1   
    24    12    16 1   
    25    13    19 1   
    26    13    29 1   
    27    13    30 1   
    28    14    15 1   
    29    14    31 1   
    30    15    16 2   
    31    16    17 1   
    32    17    18 1   
    33    17    32 1   
    34    17    33 1   
    35    18    19 1   
    36    18    34 1   
    37    18    35 1   
    38    20    21 ar  
    39    20    36 1   
    40    21    37 1   
@<TRIPOS>SUBSTRUCTURE
     1 4V9         1 TEMP              0 ****  ****    0 ROOT
