@<TRIPOS>MOLECULE
molecule
   49    50     1     0     0
SMALL
bcc


@<TRIPOS>ATOM
      1 F            0.0000     0.0000     0.0000 f          1 4VA      -0.099900
      2 Cl           2.3530    -0.0400     4.5060 cl         1 4VA       0.008600
      3 C1           2.3230     1.4770    -3.5320 c3         1 4VA      -0.112100
      4 C2           2.4110     1.4600    -2.0050 c3         1 4VA      -0.104400
      5 C3           2.3780     0.0140    -1.5070 c3         1 4VA       0.173800
      6 N5           3.5660    -0.7000    -1.9960 ny         1 4VA      -0.741000
      7 C8           3.4660    -2.1210    -1.6380 c3         1 4VA       0.119500
      8 C10          2.2510    -2.7370    -2.3340 c3         1 4VA      -0.114100
      9 C11          4.7350    -2.8500    -2.0850 c3         1 4VA      -0.195400
     10 C12          5.9120    -2.3420    -1.2930 c          1 4VA       0.486100
     11 O13          5.7370    -1.5670    -0.3780 o          1 4VA      -0.408100
     12 N14          7.1580    -2.7490    -1.6040 nz         1 4VA      -0.685400
     13 C15          2.3680     0.0000     0.0000 ca         1 4VA      -0.218300
     14 C16          3.5610     0.0000     0.6980 ca         1 4VA      -0.137000
     15 C17          3.5570    -0.0120     2.0810 ca         1 4VA      -0.106000
     16 C18          2.3580    -0.0240     2.7700 ca         1 4VA       0.057400
     17 C20          1.1580    -0.0240     2.0720 ca         1 4VA       0.123100
     18 O21         -0.0220    -0.0350     2.7460 os         1 4VA      -0.226200
     19 C22         -0.5810     1.1590     3.0730 ca         1 4VA       0.101100
     20 C23         -1.7860     1.1970     3.7620 ca         1 4VA      -0.170500
     21 C24         -2.3530     2.4120     4.0930 ca         1 4VA      -0.083500
     22 C25         -1.7210     3.5900     3.7390 ca         1 4VA      -0.132000
     23 C26         -0.5210     3.5560     3.0530 ca         1 4VA      -0.083500
     24 C27          0.0530     2.3430     2.7250 ca         1 4VA      -0.170500
     25 C28          1.1650    -0.0050     0.6830 ca         1 4VA       0.164900
     26 H3           1.4860    -0.4750    -1.8780 hx         1 4VA       0.130700
     27 HN5          3.6240    -0.6100    -2.9910 hn         1 4VA       0.446800
     28 HN5A         4.3870    -0.3080    -1.5780 hn         1 4VA       0.446800
     29 H8           3.3540    -2.2170    -0.5640 hx         1 4VA       0.150700
     30 H1           2.1200     2.4850    -3.8700 hc         1 4VA       0.054700
     31 H1A          1.5250     0.8190    -3.8550 hc         1 4VA       0.054700
     32 H1B          3.2630     1.1370    -3.9510 hc         1 4VA       0.054700
     33 H10          2.0450    -2.1940    -3.2480 hc         1 4VA       0.090033
     34 H10A         1.3910    -2.6800    -1.6780 hc         1 4VA       0.090033
     35 H10B         2.4580    -3.7740    -2.5700 hc         1 4VA       0.090033
     36 H11          4.9030    -2.6680    -3.1400 hc         1 4VA       0.129200
     37 H11A         4.6190    -3.9140    -1.9170 hc         1 4VA       0.129200
     38 HN14         7.1860    -3.7490    -1.6320 hn         1 4VA       0.496800
     39 HN1A         7.4150    -2.3840    -2.5000 hn         1 4VA       0.496800
     40 H16          4.5020     0.0090     0.1610 ha         1 4VA       0.111000
     41 H17          4.4930    -0.0120     2.6250 ha         1 4VA       0.172000
     42 H23         -2.2810     0.2740     4.0400 ha         1 4VA       0.135500
     43 H24         -3.2930     2.4430     4.6300 ha         1 4VA       0.149500
     44 H25         -2.1690     4.5430     3.9980 ha         1 4VA       0.152000
     45 H26         -0.0270     4.4800     2.7790 ha         1 4VA       0.149500
     46 H27          0.9930     2.3160     2.1870 ha         1 4VA       0.135500
     47 H2           1.5710     2.0030    -1.5890 hc         1 4VA       0.096200
     48 H143         7.7990    -2.4240    -0.9080 hn         1 4VA       0.496800
     49 H2A          3.3360     1.9290    -1.6910 hc         1 4VA       0.096200
@<TRIPOS>BOND
     1     1    25 1   
     2     2    16 1   
     3     3     4 1   
     4     3    30 1   
     5     3    31 1   
     6     3    32 1   
     7     4     5 1   
     8     4    47 1   
     9     4    49 1   
    10     5     6 1   
    11     5    13 1   
    12     5    26 1   
    13     6     7 1   
    14     6    27 1   
    15     6    28 1   
    16     7     8 1   
    17     7     9 1   
    18     7    29 1   
    19     8    33 1   
    20     8    34 1   
    21     8    35 1   
    22     9    10 1   
    23     9    36 1   
    24     9    37 1   
    25    10    11 2   
    26    10    12 1   
    27    12    38 1   
    28    12    39 1   
    29    13    14 ar  
    30    13    25 ar  
    31    14    15 ar  
    32    14    40 1   
    33    15    16 ar  
    34    15    41 1   
    35    16    17 ar  
    36    17    18 1   
    37    17    25 ar  
    38    18    19 1   
    39    19    20 ar  
    40    19    24 ar  
    41    20    21 ar  
    42    20    42 1   
    43    21    22 ar  
    44    21    43 1   
    45    22    23 ar  
    46    22    44 1   
    47    23    24 ar  
    48    23    45 1   
    49    24    46 1   
    50    48    12 1   
@<TRIPOS>SUBSTRUCTURE
     1 4VA         1 TEMP              0 ****  ****    0 ROOT
