@<TRIPOS>MOLECULE
4VB
   37    40     1     0     0
SMALL
bcc


@<TRIPOS>ATOM
      1 C2           0.0000     0.0000     0.0000 cc         1 4VB      -0.177300
      2 C3           1.3580     0.0000     0.0000 cd         1 4VB      -0.323600
      3 C11         -0.6230     0.8520    -2.2710 ca         1 4VB      -0.216300
      4 C12         -1.4670     0.8200    -3.3620 ca         1 4VB       0.412200
      5 C14         -2.7860    -0.8070    -2.3910 ca         1 4VB       0.412200
      6 C15         -1.9890    -0.8480    -1.2660 ca         1 4VB      -0.216300
      7 C16          4.4760     1.1820    -1.3000 cc         1 4VB       0.143000
      8 C17          5.7140     1.5450    -0.7300 cc         1 4VB      -0.265000
      9 C18          6.5130     2.4270    -1.3650 cd         1 4VB      -0.107400
     10 C20          4.9680     2.6550    -3.1290 c          1 4VB       0.606700
     11 C21          4.1050     1.7460    -2.5110 cd         1 4VB      -0.384200
     12 N1          -0.4030     0.0040     1.3050 na         1 4VB       0.447400
     13 C4           1.7950     0.0000     1.3310 cd         1 4VB       0.368600
     14 N5           0.7480     0.0010     2.1080 nc         1 4VB      -0.638800
     15 C6           2.2950    -0.0000    -1.1840 c3         1 4VB       0.269100
     16 N7           3.6480     0.2750    -0.6660 nh         1 4VB      -0.355400
     17 C8           4.0960    -0.4350     0.5400 c3         1 4VB       0.154800
     18 C9           3.2480     0.0070     1.7390 c3         1 4VB      -0.052700
     19 C10         -0.8790     0.0010    -1.1910 ca         1 4VB       0.014000
     20 N13         -2.5060     0.0080    -3.3910 nb         1 4VB      -0.577000
     21 N19          6.1420     2.9750    -2.5520 ns         1 4VB       0.067900
     22 O22          4.6570     3.1620    -4.1970 o          1 4VB      -0.721500
     23 H2          -1.2770     1.4740    -4.2040 h4         1 4VB      -0.015400
     24 H3          -3.6490    -1.4590    -2.4580 h4         1 4VB      -0.015400
     25 H4          -2.2240    -1.5190    -0.4490 ha         1 4VB       0.121500
     26 H5           6.0230     1.1160     0.2160 ha         1 4VB       0.131000
     27 H6           7.4630     2.7020    -0.9240 h4         1 4VB       0.118000
     28 H7           3.1600     1.4850    -2.9710 ha         1 4VB       0.148000
     29 H8          -1.3460     0.0820     1.6290 hn         1 4VB       0.152700
     30 H9           2.2760    -0.9700    -1.6680 h1         1 4VB       0.034700
     31 H10          2.0040     0.7740    -1.8840 h1         1 4VB       0.034700
     32 H11          3.9370    -1.4950     0.3860 h1         1 4VB       0.035200
     33 H12          5.1250    -0.1550     0.7340 h1         1 4VB       0.035200
     34 H13          3.3810    -0.7170     2.5340 hc         1 4VB       0.035700
     35 H14          3.5250     1.0220     1.9950 hc         1 4VB       0.035700
     36 H15          6.7510     3.6270    -3.0050 hn         1 4VB       0.166500
     37 H1           0.2290     1.5220    -2.2550 ha         1 4VB       0.121500
@<TRIPOS>BOND
     1     1     2 2   
     2     1    12 1   
     3     1    19 1   
     4     2    13 1   
     5     2    15 1   
     6     3     4 ar  
     7     3    19 ar  
     8     3    37 1   
     9     4    20 ar  
    10     4    23 1   
    11     5     6 ar  
    12     5    20 ar  
    13     5    24 1   
    14     6    19 ar  
    15     6    25 1   
    16     7     8 1   
    17     7    11 2   
    18     7    16 1   
    19     8     9 2   
    20     8    26 1   
    21     9    21 1   
    22     9    27 1   
    23    10    11 1   
    24    10    21 1   
    25    10    22 2   
    26    11    28 1   
    27    12    14 1   
    28    12    29 1   
    29    13    14 2   
    30    13    18 1   
    31    15    16 1   
    32    15    30 1   
    33    15    31 1   
    34    16    17 1   
    35    17    18 1   
    36    17    32 1   
    37    17    33 1   
    38    18    34 1   
    39    18    35 1   
    40    21    36 1   
@<TRIPOS>SUBSTRUCTURE
     1 4VB         1 TEMP              0 ****  ****    0 ROOT
