@<TRIPOS>MOLECULE
4VC
   30    31     1     0     0
SMALL
bcc


@<TRIPOS>ATOM
      1 C2           0.0000     0.0000     0.0000 ca         1 4VC      -0.077600
      2 C3           1.3830     0.0000     0.0000 ca         1 4VC      -0.078000
      3 C5           1.3890    -0.0010     2.3960 ca         1 4VC      -0.075000
      4 C6           0.0070     0.0050     2.4040 ca         1 4VC      -0.114000
      5 C7          -0.6930     0.0050     1.2050 ca         1 4VC      -0.061400
      6 C12         -4.8310     0.9470     3.4780 c3         1 4VC       0.135300
      7 C13         -6.3080     0.7120     3.2940 ca         1 4VC      -0.250600
      8 C14         -7.0940     1.6560     2.6500 ca         1 4VC      -0.051000
      9 C15         -8.4470     1.3940     2.4980 ca         1 4VC      -0.223300
     10 C16         -8.9650     0.2120     2.9920 ca         1 4VC       0.413200
     11 Cl1         -0.8690     0.0020    -1.5020 cl         1 4VC      -0.037400
     12 C4           2.0750     0.0000     1.1970 ca         1 4VC      -0.115000
     13 N8          -2.0920     0.0110     1.2090 ns         1 4VC      -0.046100
     14 C9          -2.7610     0.5060     2.2700 c          1 4VC       0.567100
     15 O10         -2.1520     1.0400     3.1780 o          1 4VC      -0.693100
     16 N11         -4.1050     0.4100     2.3250 ns         1 4VC      -0.216900
     17 N17         -8.1870    -0.6620     3.6000 nb         1 4VC      -0.582000
     18 C18         -6.8960    -0.4480     3.7620 ca         1 4VC       0.421200
     19 H19          1.9240    -0.0020    -0.9380 ha         1 4VC       0.113000
     20 H21          1.9350    -0.0010     3.3320 ha         1 4VC       0.105000
     21 H22         -0.5300     0.0070     3.3450 ha         1 4VC       0.162000
     22 H25         -4.6420     2.0110     3.5600 h1         1 4VC       0.030700
     23 H26         -4.4960     0.4500     4.3800 h1         1 4VC       0.030700
     24 H27         -6.6610     2.5740     2.2730 ha         1 4VC       0.114000
     25 H28         -9.0910     2.1090     2.0000 ha         1 4VC       0.116000
     26 H29        -10.0210     0.0000     2.8780 h4         1 4VC      -0.018900
     27 H20          3.1580    -0.0030     1.1940 ha         1 4VC       0.105000
     28 H23         -2.5960    -0.3650     0.4310 hn         1 4VC       0.168500
     29 H24         -4.6060    -0.0300     1.5790 hn         1 4VC       0.172500
     30 H30         -6.2890    -1.1900     4.2670 h4         1 4VC      -0.014900
@<TRIPOS>BOND
     1     1     2 ar  
     2     1     5 ar  
     3     1    11 1   
     4     2    12 ar  
     5     2    19 1   
     6     3     4 ar  
     7     3    12 ar  
     8     3    20 1   
     9     4     5 ar  
    10     4    21 1   
    11     5    13 1   
    12     6     7 1   
    13     6    16 1   
    14     6    22 1   
    15     6    23 1   
    16     7     8 ar  
    17     7    18 ar  
    18     8     9 ar  
    19     8    24 1   
    20     9    10 ar  
    21     9    25 1   
    22    10    17 ar  
    23    10    26 1   
    24    12    27 1   
    25    13    14 1   
    26    13    28 1   
    27    14    15 2   
    28    14    16 1   
    29    16    29 1   
    30    17    18 ar  
    31    18    30 1   
@<TRIPOS>SUBSTRUCTURE
     1 4VC         1 TEMP              0 ****  ****    0 ROOT
