@<TRIPOS>MOLECULE
4VD
   51    54     1     0     0
SMALL
bcc


@<TRIPOS>ATOM
      1 C1           0.0000     0.0000     0.0000 c3         1 4VD       0.063200
      2 C2           1.5070     0.0000     0.0000 ca         1 4VD      -0.130300
      3 C3           2.1990     0.0000     1.1950 ca         1 4VD      -0.080000
      4 C5           4.2770    -0.0020    -0.0000 ca         1 4VD      -0.108300
      5 C6           5.7830    -0.0030     0.0040 c3         1 4VD       0.127300
      6 C8           7.5950    -1.6310     0.0110 c          1 4VD       0.565100
      7 O9           8.3860    -0.7070     0.0140 o          1 4VD      -0.695100
      8 C11          9.4160    -3.1600    -0.0820 ca         1 4VD      -0.043400
      9 C12          9.8680    -4.2710    -0.7830 ca         1 4VD      -0.154000
     10 C13         11.2230    -4.5230    -0.8750 ca         1 4VD      -0.058000
     11 C14         12.1300    -3.6730    -0.2720 ca         1 4VD      -0.154000
     12 C15         11.6840    -2.5640     0.4270 ca         1 4VD       0.122900
     13 C19          2.2010    -0.0070    -1.2030 ca         1 4VD      -0.077400
     14 C21          2.1210    -0.4090    -3.5450 c          1 4VD       0.645300
     15 C23          1.4490    -0.3160    -4.7910 cc         1 4VD      -0.536300
     16 C24          1.9880    -0.5560    -6.0440 cd         1 4VD       0.162600
     17 C26         -0.0960    -0.0140    -6.3400 cc         1 4VD      -0.232300
     18 C27         -1.3720     0.2930    -6.8440 cc         1 4VD      -0.012000
     19 C28         -2.3700     0.6280    -5.9790 cd         1 4VD      -0.130000
     20 C4           3.5820    -0.0010     1.1950 ca         1 4VD      -0.103000
     21 N7           6.2710    -1.3840     0.0070 ns         1 4VD      -0.207900
     22 N10          8.0450    -2.9010     0.0140 ns         1 4VD      -0.055100
     23 F16         12.5730    -1.7350     1.0170 f          1 4VD      -0.128900
     24 C17         10.3280    -2.3090     0.5280 ca         1 4VD      -0.141000
     25 C18          3.5910    -0.0070    -1.2000 ca         1 4VD      -0.112000
     26 N20          1.5040    -0.0130    -2.4160 ns         1 4VD      -0.067100
     27 O22          3.2560    -0.8480    -3.4980 o          1 4VD      -0.635100
     28 N25          1.0380    -0.3660    -6.9460 nd         1 4VD      -0.256600
     29 C29         -2.1110     0.6610    -4.6020 cd         1 4VD      -0.060000
     30 C30         -0.8780     0.3580    -4.1360 cc         1 4VD      -0.323300
     31 N31          0.1250     0.0280    -4.9930 na         1 4VD       0.659700
     32 H34         -0.3610    -0.0390     1.0210 hc         1 4VD       0.006700
     33 H33         -0.3610    -0.8640    -0.5440 hc         1 4VD       0.006700
     34 H32         -0.3610     0.9030    -0.4760 hc         1 4VD       0.006700
     35 H35          1.6580     0.0010     2.1330 ha         1 4VD       0.108000
     36 H38          6.1470     0.5070    -0.8790 h1         1 4VD       0.030700
     37 H37          6.1420     0.5080     0.8900 h1         1 4VD       0.030700
     38 H41          9.1580    -4.9380    -1.2560 ha         1 4VD       0.107000
     39 H42         11.5750    -5.3900    -1.4220 ha         1 4VD       0.104000
     40 H43         13.1920    -3.8740    -0.3460 ha         1 4VD       0.117000
     41 H47          3.0100    -0.8480    -6.2510 h4         1 4VD       0.157000
     42 H48         -1.5600     0.2640    -7.9100 ha         1 4VD       0.129000
     43 H49         -3.3570     0.8700    -6.3540 ha         1 4VD       0.121000
     44 H36          4.1220    -0.0010     2.1340 ha         1 4VD       0.109000
     45 H39          5.6200    -2.1440     0.0090 hn         1 4VD       0.172500
     46 H40          7.3980    -3.6600     0.0990 hn         1 4VD       0.162500
     47 H44          9.9780    -1.4420     1.0750 ha         1 4VD       0.164000
     48 H45          4.1360    -0.0120    -2.1360 ha         1 4VD       0.176000
     49 H46          0.5240     0.1920    -2.4280 hn         1 4VD       0.180500
     50 H50         -2.9000     0.9260    -3.9090 ha         1 4VD       0.119000
     51 H51         -0.6850     0.3860    -3.0700 h4         1 4VD       0.148000
@<TRIPOS>BOND
     1     1     2 1   
     2     1    32 1   
     3     1    33 1   
     4     1    34 1   
     5     2     3 ar  
     6     2    13 ar  
     7     3    20 ar  
     8     3    35 1   
     9     4     5 1   
    10     4    20 ar  
    11     4    25 ar  
    12     5    21 1   
    13     5    36 1   
    14     5    37 1   
    15     6     7 2   
    16     6    21 1   
    17     6    22 1   
    18     8     9 ar  
    19     8    22 1   
    20     8    24 ar  
    21     9    10 ar  
    22     9    38 1   
    23    10    11 ar  
    24    10    39 1   
    25    11    12 ar  
    26    11    40 1   
    27    12    23 1   
    28    12    24 ar  
    29    13    25 ar  
    30    13    26 1   
    31    14    15 1   
    32    14    26 1   
    33    14    27 2   
    34    15    16 2   
    35    15    31 1   
    36    16    28 1   
    37    16    41 1   
    38    17    18 1   
    39    17    28 2   
    40    17    31 1   
    41    18    19 2   
    42    18    42 1   
    43    19    29 1   
    44    19    43 1   
    45    20    44 1   
    46    21    45 1   
    47    22    46 1   
    48    24    47 1   
    49    25    48 1   
    50    26    49 1   
    51    29    30 2   
    52    29    50 1   
    53    30    31 1   
    54    30    51 1   
@<TRIPOS>SUBSTRUCTURE
     1 4VD         1 TEMP              0 ****  ****    0 ROOT
