@<TRIPOS>MOLECULE
molecule
   51    54     1     0     0
SMALL
bcc


@<TRIPOS>ATOM
      1 C1           0.0000     0.0000     0.0000 c3         1 4VD      -0.049800
      2 C2           1.5070     0.0000     0.0000 ca         1 4VD      -0.122300
      3 C3           2.1990     0.0000     1.1950 ca         1 4VD      -0.109000
      4 C5           4.2770    -0.0020    -0.0000 ca         1 4VD      -0.105300
      5 C6           5.7830    -0.0030     0.0040 c3         1 4VD       0.181300
      6 C8           7.5950    -1.6310     0.0110 c          1 4VD       0.782100
      7 O9           8.3860    -0.7070     0.0140 o          1 4VD      -0.647100
      8 C11          9.4160    -3.1600    -0.0820 ca         1 4VD       0.100600
      9 C12          9.8680    -4.2710    -0.7830 ca         1 4VD      -0.182000
     10 C13         11.2230    -4.5230    -0.8750 ca         1 4VD      -0.088000
     11 C14         12.1300    -3.6730    -0.2720 ca         1 4VD      -0.189000
     12 C15         11.6840    -2.5640     0.4270 ca         1 4VD       0.148900
     13 C19          2.2010    -0.0070    -1.2030 ca         1 4VD       0.058600
     14 C21          2.1210    -0.4090    -3.5450 c          1 4VD       0.718300
     15 C23          1.4490    -0.3160    -4.7910 cc         1 4VD      -0.306300
     16 C24          1.9880    -0.5560    -6.0440 cc         1 4VD       0.138600
     17 C26         -0.0960    -0.0140    -6.3400 cd         1 4VD       0.000700
     18 C27         -1.3720     0.2930    -6.8440 cd         1 4VD      -0.081000
     19 C28         -2.3700     0.6280    -5.9790 cc         1 4VD      -0.121000
     20 C4           3.5820    -0.0010     1.1950 ca         1 4VD      -0.132000
     21 N7           6.2710    -1.3840     0.0070 ns         1 4VD      -0.594900
     22 N10          8.0450    -2.9010     0.0140 ns         1 4VD      -0.493100
     23 F16         12.5730    -1.7350     1.0170 f          1 4VD      -0.139900
     24 C17         10.3280    -2.3090     0.5280 ca         1 4VD      -0.169000
     25 C18          3.5910    -0.0070    -1.2000 ca         1 4VD      -0.125000
     26 N20          1.5040    -0.0130    -2.4160 ns         1 4VD      -0.480100
     27 O22          3.2560    -0.8480    -3.4980 o          1 4VD      -0.594100
     28 N25          1.0380    -0.3660    -6.9460 nc         1 4VD      -0.320600
     29 C29         -2.1110     0.6610    -4.6020 cc         1 4VD      -0.143000
     30 C30         -0.8780     0.3580    -4.1360 cd         1 4VD      -0.098300
     31 N31          0.1250     0.0280    -4.9930 na         1 4VD       0.065700
     32 H34         -0.3610    -0.0390     1.0210 hc         1 4VD       0.041700
     33 H33         -0.3610    -0.8640    -0.5440 hc         1 4VD       0.041700
     34 H32         -0.3610     0.9030    -0.4760 hc         1 4VD       0.041700
     35 H35          1.6580     0.0010     2.1330 ha         1 4VD       0.134000
     36 H38          6.1470     0.5070    -0.8790 h1         1 4VD       0.061700
     37 H37          6.1420     0.5080     0.8900 h1         1 4VD       0.061700
     38 H41          9.1580    -4.9380    -1.2560 ha         1 4VD       0.132000
     39 H42         11.5750    -5.3900    -1.4220 ha         1 4VD       0.136000
     40 H43         13.1920    -3.8740    -0.3460 ha         1 4VD       0.143000
     41 H47          3.0100    -0.8480    -6.2510 h4         1 4VD       0.207000
     42 H48         -1.5600     0.2640    -7.9100 ha         1 4VD       0.168000
     43 H49         -3.3570     0.8700    -6.3540 ha         1 4VD       0.151000
     44 H36          4.1220    -0.0010     2.1340 ha         1 4VD       0.136000
     45 H39          5.6200    -2.1440     0.0090 hn         1 4VD       0.314500
     46 H40          7.3980    -3.6600     0.0990 hn         1 4VD       0.320500
     47 H44          9.9780    -1.4420     1.0750 ha         1 4VD       0.183000
     48 H45          4.1360    -0.0120    -2.1360 ha         1 4VD       0.190000
     49 H46          0.5240     0.1920    -2.4280 hn         1 4VD       0.323500
     50 H50         -2.9000     0.9260    -3.9090 ha         1 4VD       0.155000
     51 H51         -0.6850     0.3860    -3.0700 h4         1 4VD       0.157000
@<TRIPOS>BOND
     1    23    12 1   
     2    12    11 ar  
     3    12    24 ar  
     4    11    10 ar  
     5    24     8 ar  
     6    10     9 ar  
     7    28    16 1   
     8    28    17 2   
     9     8     9 ar  
    10     8    22 1   
    11    16    15 2   
    12     7     6 2   
    13    17    18 1   
    14    17    31 1   
    15    18    19 2   
    16    22     6 1   
    17     6    21 1   
    18    15    31 1   
    19    15    14 1   
    20    31    30 1   
    21    26    14 1   
    22    26    13 1   
    23    19    29 1   
    24    14    27 2   
    25    21     5 1   
    26    13    25 ar  
    27    13     2 ar  
    28    25     4 ar  
    29    30    29 2   
    30     5     4 1   
    31     4    20 ar  
    32     2     1 1   
    33     2     3 ar  
    34    20     3 ar  
    35     1    32 1   
    36     1    33 1   
    37     1    34 1   
    38     3    35 1   
    39     5    36 1   
    40     5    37 1   
    41     9    38 1   
    42    10    39 1   
    43    11    40 1   
    44    16    41 1   
    45    18    42 1   
    46    19    43 1   
    47    20    44 1   
    48    21    45 1   
    49    22    46 1   
    50    24    47 1   
    51    25    48 1   
    52    26    49 1   
    53    29    50 1   
    54    30    51 1   
@<TRIPOS>SUBSTRUCTURE
     1 4VD         1 TEMP              0 ****  ****    0 ROOT
