@<TRIPOS>MOLECULE
4VE
   52    56     1     0     0
SMALL
bcc


@<TRIPOS>ATOM
      1 C1          0.0220    0.0670    0.4650 c3        1 4VE     -0.127100
      2 C2          1.5060   -0.0900    0.1250 c3        1 4VE      0.255800
      3 N4          2.3730   -0.3030    1.2810 nh        1 4VE     -0.768200
      4 C5          2.2240   -1.4640    2.0130 cc        1 4VE      0.744500
      5 C7          1.9880   -3.4870    2.8130 ca        1 4VE      0.116400
      6 C8          1.7220   -4.8320    3.0630 ca        1 4VE     -0.128000
      7 C11         2.7230   -4.5390    5.3060 ca        1 4VE     -0.167000
      8 C12         2.9950   -3.1920    5.0680 ca        1 4VE     -0.080000
      9 C13         2.6220   -2.6950    3.8320 ca        1 4VE      0.003100
     10 C15         1.9710    1.1250   -0.6460 ca        1 4VE     -0.075300
     11 C16         1.9480    2.3930   -0.0620 ca        1 4VE     -0.146000
     12 C22         3.0230    0.8990   -4.9020 c         1 4VE      0.726300
     13 C24         3.6160    1.0140   -6.2430 cc        1 4VE     -0.282300
     14 C25         4.4700    2.0080   -6.8060 cd        1 4VE      0.068600
     15 C27         4.1540    0.5360   -8.3980 cc        1 4VE     -0.012300
     16 C28         4.1290   -0.2390   -9.5990 cc        1 4VE     -0.105000
     17 C31         2.6970   -1.0970   -7.3150 cc        1 4VE     -0.056300
     18 N32         3.4170    0.0720   -7.2640 na        1 4VE      0.061700
     19 N6          1.7450   -2.6810    1.6810 nd        1 4VE     -0.616100
     20 C9          2.0990   -5.3390    4.3220 ca        1 4VE      0.119900
     21 F10         1.8560   -6.6440    4.6010 f         1 4VE     -0.141900
     22 O14         2.7740   -1.3950    3.3460 os        1 4VE     -0.332700
     23 C17         2.3660    3.4970   -0.7970 ca        1 4VE     -0.104000
     24 C18         2.8060    3.3690   -2.1160 ca        1 4VE     -0.117300
     25 C20         2.8340    2.0790   -2.7140 ca        1 4VE      0.072600
     26 N21         3.3070    1.9430   -4.0310 n         1 4VE     -0.464100
     27 O23         2.3170   -0.0800   -4.5800 o         1 4VE     -0.616100
     28 N26         4.7940    1.7220   -8.1060 nd        1 4VE     -0.289600
     29 C29         3.4020   -1.4020   -9.6260 cd        1 4VE     -0.104000
     30 C30         2.6820   -1.8360   -8.4800 cd        1 4VE     -0.171000
     31 C33         2.4200    0.9630   -1.9560 ca        1 4VE     -0.125000
     32 H35        -0.3590   -0.8440    0.9860 hc        1 4VE      0.051700
     33 H34        -0.1530    0.9570    1.1150 hc        1 4VE      0.051700
     34 H36        -0.5520    0.2010   -0.4830 hc        1 4VE      0.051700
     35 H3          1.6170   -1.0090   -0.5300 h1        1 4VE      0.097700
     36 H37         2.5610    0.5080    1.8350 hn        1 4VE      0.428800
     37 H38         1.2420   -5.4780    2.3160 ha        1 4VE      0.167000
     38 H39         2.9940   -4.9940    6.2700 ha        1 4VE      0.153000
     39 H40         3.4810   -2.5620    5.8240 ha        1 4VE      0.155000
     40 H41         1.5930    2.5270    0.9700 ha        1 4VE      0.130000
     41 H43         3.0830    5.5000   -2.2410 hc        1 4VE      0.045700
     42 H45         2.6450    4.6980   -3.8010 hc        1 4VE      0.045700
     43 H44         4.3210    4.5190   -3.1200 hc        1 4VE      0.045700
     44 H47         4.8570    2.9050   -6.3170 h4        1 4VE      0.178000
     45 H48         4.7000    0.1290  -10.4640 ha        1 4VE      0.169000
     46 H51         2.1580   -1.3850   -6.3900 h4        1 4VE      0.207000
     47 H42         2.3470    4.4960   -0.3330 ha        1 4VE      0.135000
     48 H46         3.8100    2.7220   -4.3950 hn        1 4VE      0.322500
     49 H49         3.3670   -2.0170  -10.5380 ha        1 4VE      0.148000
     50 H50         2.1060   -2.7710   -8.5190 ha        1 4VE      0.158000
     51 H52         2.4420   -0.0480   -2.3990 ha        1 4VE      0.175000
     52 C19         3.2340    4.5790   -2.8570 c3        1 4VE     -0.056800
@<TRIPOS>BOND
     1    1    2 1   
     2    1   32 1   
     3    1   33 1   
     4    1   34 1   
     5    2    3 1   
     6    2   10 1   
     7    2   35 1   
     8    3    4 1   
     9    3   36 1   
    10    4   19 2   
    11    4   22 1   
    12    5    6 ar  
    13    5    9 ar  
    14    5   19 1   
    15    6   20 ar  
    16    6   37 1   
    17    7    8 ar  
    18    7   20 ar  
    19    7   38 1   
    20    8    9 ar  
    21    8   39 1   
    22    9   22 1   
    23   10   11 ar  
    24   10   31 ar  
    25   11   23 ar  
    26   11   40 1   
    27   12   13 1   
    28   12   26 1   
    29   12   27 2   
    30   13   14 2   
    31   13   18 1   
    32   14   28 1   
    33   14   44 1   
    34   15   16 1   
    35   15   18 1   
    36   15   28 2   
    37   16   29 2   
    38   16   45 1   
    39   17   18 1   
    40   17   30 2   
    41   17   46 1   
    42   20   21 1   
    43   23   24 ar  
    44   23   47 1   
    45   24   25 ar  
    46   24   52 1   
    47   25   26 1   
    48   25   31 ar  
    49   26   48 1   
    50   29   30 1   
    51   29   49 1   
    52   30   50 1   
    53   31   51 1   
    54   41   52 1   
    55   42   52 1   
    56   43   52 1   
@<TRIPOS>SUBSTRUCTURE
     1 4VE         1 TEMP              0 ****  ****    0 ROOT
