@<TRIPOS>MOLECULE
molecule
   59    63     1     0     0
SMALL
bcc


@<TRIPOS>ATOM
      1 C2           0.0000     0.0000     0.0000 cc         1 4VF      -0.207900
      2 C3          -1.8720    -0.0460     1.6430 c3         1 4VF       0.023300
      3 C12          4.6630    -0.0950     3.5930 ca         1 4VF       0.948900
      4 C15          1.3510     0.0000     0.0000 cc         1 4VF      -0.078000
      5 C16          1.7620     0.0000     1.3530 cc         1 4VF      -0.270500
      6 C17          0.6190    -0.0030     2.1290 cd         1 4VF      -0.064300
      7 C18         -3.2820     0.0230    -1.8170 c3         1 4VF       0.167000
      8 C19         -4.3020    -0.9650    -1.3090 ca         1 4VF      -0.089300
      9 C20         -5.6280    -0.8410    -1.6800 ca         1 4VF      -0.103000
     10 C21         -6.5630    -1.7480    -1.2130 ca         1 4VF       0.029400
     11 C22         -6.1700    -2.7770    -0.3760 ca         1 4VF      -0.119000
     12 C23         -4.8440    -2.8990    -0.0060 ca         1 4VF      -0.122000
     13 C24         -3.9090    -1.9960    -0.4770 ca         1 4VF      -0.121000
     14 C25          6.2680    -0.2000     5.4640 c3         1 4VF       0.253500
     15 C26          6.2750     0.2910     6.9150 c3         1 4VF      -0.134400
     16 C27          7.7010     0.2130     7.4650 c3         1 4VF       0.140400
     17 C29          8.2380    -1.6270     6.0240 c3         1 4VF       0.140400
     18 C30          6.8340    -1.6230     5.4160 c3         1 4VF      -0.134400
     19 Cl1         -8.2280    -1.5940    -1.6780 cl         1 4VF      -0.108400
     20 O28          8.1780    -1.1300     7.3620 os         1 4VF      -0.423600
     21 N5          -2.2540     0.2330    -0.7950 n          1 4VF      -0.492800
     22 C31         -3.9710     1.3540    -2.1270 c3         1 4VF       0.122400
     23 C8           3.1590     0.0030     1.8470 ca         1 4VF       0.606800
     24 C6          -0.9550     0.0240    -1.1180 c          1 4VF       0.751100
     25 N13          3.4150    -0.0980     3.1500 nb         1 4VF      -0.816000
     26 N14          4.8950    -0.2010     4.9530 nu         1 4VF      -0.897900
     27 C4          -2.6570     0.6600     0.5390 c3         1 4VF       0.101000
     28 C10          5.5150     0.0980     1.4590 ca         1 4VF       0.500200
     29 O7          -0.5990    -0.1360    -2.2700 o          1 4VF      -0.627500
     30 C9           4.2280     0.1110     0.9520 ca         1 4VF      -0.438600
     31 N1          -0.4430    -0.0130     1.3160 na         1 4VF      -0.042100
     32 N11          5.6940     0.0000     2.7670 nb         1 4VF      -0.814000
     33 H1          -2.2010    -1.0750     1.7190 h1         1 4VF       0.068200
     34 H2          -2.0380     0.4630     2.5850 h1         1 4VF       0.068200
     35 H3           1.9960     0.0020    -0.8700 ha         1 4VF       0.169000
     36 H4           0.5890    -0.0040     3.2120 h4         1 4VF       0.187000
     37 H5          -2.8230    -0.3640    -2.7180 h1         1 4VF       0.112700
     38 H6          -5.9350    -0.0350    -2.3350 ha         1 4VF       0.147000
     39 H7          -6.9020    -3.4850    -0.0090 ha         1 4VF       0.145000
     40 H8          -4.5360    -3.7060     0.6470 ha         1 4VF       0.138000
     41 H9          -2.8700    -2.0920    -0.1870 ha         1 4VF       0.140000
     42 H10          6.8840     0.4530     4.8590 h1         1 4VF       0.079700
     43 H11          5.6240    -0.3360     7.5120 hc         1 4VF       0.057700
     44 H12          5.9300     1.3170     6.9500 hc         1 4VF       0.057700
     45 H13          8.3450     0.8680     6.8900 h1         1 4VF       0.049200
     46 H14          7.7040     0.5170     8.5040 h1         1 4VF       0.049200
     47 H15          8.6230    -2.6390     6.0330 h1         1 4VF       0.049200
     48 H16          8.8870    -0.9930     5.4330 h1         1 4VF       0.049200
     49 H17          6.1920    -2.2860     5.9850 hc         1 4VF       0.057700
     50 H18          6.8850    -1.9570     4.3870 hc         1 4VF       0.057700
     51 H19         -5.0640     2.6470    -1.1450 ho         1 4VF       0.407000
     52 H20         -3.2270     2.0890    -2.4070 h1         1 4VF       0.037700
     53 H21         -4.6700     1.2170    -2.9440 h1         1 4VF       0.037700
     54 H22          4.1250    -0.2620     5.5890 hn         1 4VF       0.453800
     55 H23         -3.7110     0.4460     0.6700 h1         1 4VF       0.074200
     56 H24         -2.4980     1.7280     0.6260 h1         1 4VF       0.074200
     57 H25          6.3660     0.1780     0.7930 h4         1 4VF       0.025100
     58 H26          4.0530     0.1900    -0.1140 ha         1 4VF       0.146000
     59 O32         -4.6760     1.8060    -0.9690 oh         1 4VF      -0.617800
@<TRIPOS>BOND
     1    11    12 ar  
     2    11    10 ar  
     3    28    30 ar  
     4    28    32 ar  
     5    12    13 ar  
     6    19    10 1   
     7    30    23 ar  
     8    10     9 ar  
     9    32     3 ar  
    10    13     8 ar  
    11     4     5 1   
    12     4     1 2   
    13    29    24 2   
    14    23     5 1   
    15    23    25 ar  
    16     9     8 ar  
    17     3    25 ar  
    18     3    26 1   
    19     8     7 1   
    20     5     6 2   
    21    24     1 1   
    22    24    21 1   
    23     1    31 1   
    24    26    14 1   
    25     7    21 1   
    26     7    22 1   
    27    21    27 1   
    28     6    31 1   
    29    31     2 1   
    30    14    15 1   
    31    14    18 1   
    32    15    16 1   
    33    27     2 1   
    34    22    59 1   
    35    16    20 1   
    36    18    17 1   
    37    17    20 1   
    38     2    33 1   
    39     2    34 1   
    40     4    35 1   
    41     6    36 1   
    42     7    37 1   
    43     9    38 1   
    44    11    39 1   
    45    12    40 1   
    46    13    41 1   
    47    14    42 1   
    48    15    43 1   
    49    15    44 1   
    50    16    45 1   
    51    16    46 1   
    52    17    47 1   
    53    17    48 1   
    54    18    49 1   
    55    18    50 1   
    56    59    51 1   
    57    22    52 1   
    58    22    53 1   
    59    26    54 1   
    60    27    55 1   
    61    27    56 1   
    62    28    57 1   
    63    30    58 1   
@<TRIPOS>SUBSTRUCTURE
     1 4VF         1 TEMP              0 ****  ****    0 ROOT
