@<TRIPOS>MOLECULE
4VG
   62    66     1     0     0
SMALL
bcc


@<TRIPOS>ATOM
      1 C1           0.0000     0.0000     0.0000 cc         1 4VG      -0.389900
      2 C3           1.4770     0.0000     0.0000 c          1 4VG       0.684100
      3 C12         -5.7390    -0.8840    -0.9620 ca         1 4VG       0.729900
      4 C15         -0.1080     1.7160     1.8250 c3         1 4VG      -0.057700
      5 C16          0.5240     0.9080     2.9660 c3         1 4VG      -0.059400
      6 C17          1.2550    -0.3070     2.3950 c3         1 4VG       0.042000
      7 C19          3.4870     0.3040     1.3640 c3         1 4VG       0.101000
      8 C20          4.2850    -0.6050     0.4660 ca         1 4VG      -0.071300
      9 C21          5.4320    -0.1370    -0.1480 ca         1 4VG      -0.082000
     10 C22          6.1640    -0.9710    -0.9730 ca         1 4VG      -0.025600
     11 C23          5.7480    -2.2740    -1.1840 ca         1 4VG      -0.098000
     12 C24          4.6010    -2.7410    -0.5700 ca         1 4VG      -0.083000
     13 C25          3.8730    -1.9080     0.2580 ca         1 4VG      -0.086000
     14 C26          3.7390     1.7610     0.9700 c3         1 4VG       0.192400
     15 C28         -8.2060    -0.9070    -0.9980 c3         1 4VG       0.140500
     16 C29         -9.3060    -0.7450     0.0560 c3         1 4VG      -0.083400
     17 C30        -10.6420    -1.1970    -0.5400 c3         1 4VG       0.220400
     18 N2          -0.7230     0.8100     0.8550 na         1 4VG       0.464900
     19 C8          -3.4330    -0.8600    -0.9250 ca         1 4VG       0.580800
     20 C6          -2.0320     0.6050     0.6300 cc         1 4VG      -0.256300
     21 C5          -2.1610    -0.3390    -0.3680 cd         1 4VG      -0.265500
     22 N13         -4.6030    -0.4200    -0.4650 nb         1 4VG      -0.710000
     23 N14         -6.9380    -0.4060    -0.4620 nu         1 4VG      -0.487900
     24 C4          -0.8580    -0.7150    -0.7620 cd         1 4VG      -0.066000
     25 C32         -9.9510    -0.5820    -2.7520 c3         1 4VG       0.220400
     26 C10         -4.6320    -2.2690    -2.4360 ca         1 4VG       0.493200
     27 O7           2.1270     0.0020    -1.0290 o          1 4VG      -0.600500
     28 O31        -10.9220    -0.4330    -1.7140 os         1 4VG      -0.410600
     29 C9          -3.4220    -1.8220    -1.9410 ca         1 4VG      -0.421600
     30 N18          2.0600     0.0000     1.2240 n          1 4VG      -0.179800
     31 Cl1          7.6050    -0.3840    -1.7430 cl         1 4VG      -0.038400
     32 C33         -8.5870    -0.1050    -2.2460 c3         1 4VG      -0.083400
     33 N11         -5.7580    -1.7910    -1.9280 nb         1 4VG      -0.719000
     34 O27          3.4500     1.9350    -0.4180 oh         1 4VG      -0.552800
     35 H1           0.6600     2.3010     1.3330 h1         1 4VG       0.041200
     36 H2          -0.8660     2.3750     2.2300 h1         1 4VG       0.041200
     37 H3          -0.2530     0.5740     3.6420 hc         1 4VG       0.028700
     38 H4           1.2290     1.5330     3.5000 hc         1 4VG       0.028700
     39 H5           1.9040    -0.7120     3.1630 h1         1 4VG       0.032700
     40 H6           0.5210    -1.0560     2.1240 h1         1 4VG       0.032700
     41 H7           3.7890     0.1500     2.3930 h1         1 4VG       0.039700
     42 H8           5.7570     0.8830     0.0180 ha         1 4VG       0.119000
     43 H9           6.3200    -2.9280    -1.8320 ha         1 4VG       0.112000
     44 H10          4.2760    -3.7610    -0.7340 ha         1 4VG       0.104000
     45 H11          2.9740    -2.2740     0.7390 ha         1 4VG       0.104000
     46 H12          4.7760     2.0110     1.1570 h1         1 4VG      -0.009300
     47 H13          3.0990     2.4090     1.5560 h1         1 4VG      -0.009300
     48 H14         -8.1060    -1.9540    -1.2580 h1         1 4VG       0.056700
     49 H16         -9.0720    -1.3560     0.9190 hc         1 4VG       0.028950
     50 H17        -10.5840    -2.2470    -0.7990 h1         1 4VG       0.008700
     51 H18        -11.4310    -1.0420     0.1860 h1         1 4VG       0.008700
     52 H19         -2.8470     1.0990     1.1450 h4         1 4VG       0.157000
     53 H20         -6.9390     0.2700     0.2760 hn         1 4VG       0.298800
     54 H21         -0.6000    -1.2880    -1.6450 ha         1 4VG       0.139000
     55 H22         -9.8850    -1.6260    -3.0360 h1         1 4VG       0.008700
     56 H23        -10.2450     0.0130    -3.6090 h1         1 4VG       0.008700
     57 H24         -4.6600    -3.0110    -3.2240 h4         1 4VG      -0.022900
     58 H25         -2.4870    -2.1970    -2.3390 ha         1 4VG       0.131000
     59 H26         -7.8420    -0.2610    -3.0170 hc         1 4VG       0.028950
     60 H27         -8.6430     0.9470    -1.9960 hc         1 4VG       0.028950
     61 H28          3.6580     2.8180    -0.6740 ho         1 4VG       0.381000
     62 H15         -9.3750     0.2950     0.3490 hc         1 4VG       0.028950
@<TRIPOS>BOND
     1     1     2 1   
     2     1    18 1   
     3     1    24 2   
     4     2    27 2   
     5     2    30 1   
     6     3    22 ar  
     7     3    23 1   
     8     3    33 ar  
     9     4     5 1   
    10     4    18 1   
    11     4    35 1   
    12     4    36 1   
    13     5     6 1   
    14     5    37 1   
    15     5    38 1   
    16     6    30 1   
    17     6    39 1   
    18     6    40 1   
    19     7     8 1   
    20     7    14 1   
    21     7    30 1   
    22     7    41 1   
    23     8     9 ar  
    24     8    13 ar  
    25     9    10 ar  
    26     9    42 1   
    27    10    11 ar  
    28    10    31 1   
    29    11    12 ar  
    30    11    43 1   
    31    12    13 ar  
    32    12    44 1   
    33    13    45 1   
    34    14    34 1   
    35    14    46 1   
    36    14    47 1   
    37    15    16 1   
    38    15    23 1   
    39    15    32 1   
    40    15    48 1   
    41    16    17 1   
    42    16    49 1   
    43    16    62 1   
    44    17    28 1   
    45    17    50 1   
    46    17    51 1   
    47    18    20 1   
    48    19    21 1   
    49    19    22 ar  
    50    19    29 ar  
    51    20    21 2   
    52    20    52 1   
    53    21    24 1   
    54    23    53 1   
    55    24    54 1   
    56    25    28 1   
    57    25    32 1   
    58    25    55 1   
    59    25    56 1   
    60    26    29 ar  
    61    26    33 ar  
    62    26    57 1   
    63    29    58 1   
    64    32    59 1   
    65    32    60 1   
    66    34    61 1   
@<TRIPOS>SUBSTRUCTURE
     1 4VG         1 TEMP              0 ****  ****    0 ROOT
