@<TRIPOS>MOLECULE
4VJ
   62    66     1     0     0
SMALL
bcc


@<TRIPOS>ATOM
      1 O2           0.0000     0.0000     0.0000 o          1 4VJ      -0.651500
      2 C11          4.3580     0.0000     0.0000 cc         1 4VJ      -0.268500
      3 C12          4.3040     0.0000     1.3790 cd         1 4VJ      -0.254300
      4 C13          5.5670    -0.1980    -0.8320 ca         1 4VJ       0.581800
      5 C14          5.4810    -0.1670    -2.2280 ca         1 4VJ      -0.423600
      6 C15          6.6370    -0.3560    -2.9630 ca         1 4VJ       0.493200
      7 C16          7.8350    -0.5820    -1.0050 ca         1 4VJ       0.729900
      8 C17          2.5000     0.3010     3.1160 c3         1 4VJ      -0.083700
      9 C18          2.1150     1.7520     3.4330 c3         1 4VJ      -0.071400
     10 C19          1.4060     2.3720     2.2300 c3         1 4VJ       0.028000
     11 C20         -0.9970     1.6000     2.0200 c3         1 4VJ       0.093000
     12 C21         -1.4160     0.3360     2.7260 ca         1 4VJ      -0.096300
     13 C22         -2.5700    -0.3210     2.3400 ca         1 4VJ      -0.070000
     14 C23         -2.9540    -1.4810     2.9880 ca         1 4VJ      -0.033600
     15 C24         -2.1840    -1.9830     4.0230 ca         1 4VJ      -0.094000
     16 C25         -1.0320    -1.3250     4.4080 ca         1 4VJ      -0.095000
     17 C26         -0.6440    -0.1690     3.7560 ca         1 4VJ      -0.113000
     18 C27         -1.1810     2.7940     2.9590 c3         1 4VJ       0.209400
     19 C28         10.2610    -0.9940    -1.1860 c3         1 4VJ       0.139500
     20 C29         11.3170    -1.7650    -0.3680 c3         1 4VJ      -0.055400
     21 C30         12.6650    -1.1290    -0.7900 c3         1 4VJ       0.191100
     22 Cl1         -4.4020    -2.3060     2.5050 cl         1 4VJ      -0.025400
     23 N3           7.7820    -0.5590    -2.3290 nb         1 4VJ      -0.719000
     24 N5           0.4110     1.4980     1.6290 n          1 4VJ      -0.163800
     25 C31         12.3050     0.3720    -0.9320 c3         1 4VJ      -0.044400
     26 C8           2.2530     0.3390     0.6220 cd         1 4VJ      -0.395900
     27 O34         13.6540    -1.3180     0.2220 oh         1 4VJ      -0.579800
     28 C32         10.8890     0.3640    -1.5460 c3         1 4VJ      -0.041400
     29 C10          3.0430     0.2180    -0.4700 cc         1 4VJ      -0.059000
     30 C9           0.8010     0.5860     0.7050 c          1 4VJ       0.694100
     31 N1           3.0320     0.2130     1.7560 na         1 4VJ       0.473900
     32 N7           9.0530    -0.7900    -0.3830 nu         1 4VJ      -0.487900
     33 O6          -0.4680     2.5580     4.1750 oh         1 4VJ      -0.597800
     34 N4           6.7530    -0.4010    -0.2640 nb         1 4VJ      -0.710000
     35 H1           5.1450    -0.1490     2.0460 h4         1 4VJ       0.158000
     36 H2           4.5310     0.0000    -2.7210 ha         1 4VJ       0.130000
     37 H3           6.6060    -0.3390    -4.0450 h4         1 4VJ      -0.022900
     38 H4           3.2540    -0.0300     3.8190 h1         1 4VJ       0.049700
     39 H5           1.6220    -0.3290     3.1990 h1         1 4VJ       0.049700
     40 H6           1.4510     1.7690     4.2880 hc         1 4VJ       0.043200
     41 H7           3.0100     2.3210     3.6540 hc         1 4VJ       0.043200
     42 H8           2.1480     2.6160     1.4800 h1         1 4VJ       0.040200
     43 H9           0.9160     3.2830     2.5500 h1         1 4VJ       0.040200
     44 H10         -1.6080     1.7380     1.1360 h1         1 4VJ       0.053700
     45 H11         -3.1720     0.0710     1.5300 ha         1 4VJ       0.120000
     46 H12         -2.4850    -2.8900     4.5330 ha         1 4VJ       0.114000
     47 H13         -0.4270    -1.7190     5.2160 ha         1 4VJ       0.104000
     48 H14          0.2590     0.3470     4.0580 ha         1 4VJ       0.135000
     49 H15         -0.7990     3.6890     2.4840 h1         1 4VJ       0.002700
     50 H16         -2.2340     2.9230     3.1770 h1         1 4VJ       0.002700
     51 H17         10.0230    -1.5410    -2.0910 h1         1 4VJ       0.055700
     52 H18         11.1490    -1.6230     0.6930 hc         1 4VJ       0.028200
     53 H19         11.2990    -2.8170    -0.6240 hc         1 4VJ       0.028200
     54 H20         12.9950    -1.5330    -1.7400 h1         1 4VJ       0.005700
     55 H21         12.2930     0.8510     0.0390 hc         1 4VJ       0.023200
     56 H22         13.0020     0.8660    -1.5980 hc         1 4VJ       0.023200
     57 H23         14.3920    -1.7790    -0.1420 ho         1 4VJ       0.388000
     58 H24         10.2990     1.1680    -1.1230 hc         1 4VJ       0.025700
     59 H25         10.9520     0.4690    -2.6220 hc         1 4VJ       0.025700
     60 H26          2.7280     0.2770    -1.5050 ha         1 4VJ       0.135000
     61 H27          9.1030    -0.8380     0.6160 hn         1 4VJ       0.301800
     62 H28         -0.8020     3.1240     4.8500 ho         1 4VJ       0.396000
@<TRIPOS>BOND
     1     1    30 2   
     2     2     3 2   
     3     2     4 1   
     4     2    29 1   
     5     3    31 1   
     6     3    35 1   
     7     4     5 ar  
     8     4    34 ar  
     9     5     6 ar  
    10     5    36 1   
    11     6    23 ar  
    12     6    37 1   
    13     7    23 ar  
    14     7    32 1   
    15     7    34 ar  
    16     8     9 1   
    17     8    31 1   
    18     8    38 1   
    19     8    39 1   
    20     9    10 1   
    21     9    40 1   
    22     9    41 1   
    23    10    24 1   
    24    10    42 1   
    25    10    43 1   
    26    11    12 1   
    27    11    18 1   
    28    11    24 1   
    29    11    44 1   
    30    12    13 ar  
    31    12    17 ar  
    32    13    14 ar  
    33    13    45 1   
    34    14    15 ar  
    35    14    22 1   
    36    15    16 ar  
    37    15    46 1   
    38    16    17 ar  
    39    16    47 1   
    40    17    48 1   
    41    18    33 1   
    42    18    49 1   
    43    18    50 1   
    44    19    20 1   
    45    19    28 1   
    46    19    32 1   
    47    19    51 1   
    48    20    21 1   
    49    20    52 1   
    50    20    53 1   
    51    21    25 1   
    52    21    27 1   
    53    21    54 1   
    54    24    30 1   
    55    25    28 1   
    56    25    55 1   
    57    25    56 1   
    58    26    29 2   
    59    26    30 1   
    60    26    31 1   
    61    27    57 1   
    62    28    58 1   
    63    28    59 1   
    64    29    60 1   
    65    32    61 1   
    66    33    62 1   
@<TRIPOS>SUBSTRUCTURE
     1 4VJ         1 TEMP              0 ****  ****    0 ROOT
