@<TRIPOS>MOLECULE
4VK
   44    46     1     0     0
SMALL
bcc


@<TRIPOS>ATOM
      1 C1           0.0000     0.0000     0.0000 ca         1 4VK      -0.133000
      2 C2           1.3830     0.0000     0.0000 ca         1 4VK       0.005000
      3 C3           2.0740     0.0000     1.1970 ca         1 4VK      -0.161500
      4 C7           4.8770     3.6840     2.2750 ca         1 4VK      -0.125300
      5 C8           4.4040     4.8020     1.6120 ca         1 4VK      -0.078500
      6 C9           5.1720     5.9460     1.5470 ca         1 4VK      -0.104000
      7 C10          6.4270     5.9750     2.1510 cp         1 4VK      -0.018000
      8 C11          6.8990     4.8460     2.8190 ca         1 4VK      -0.104000
      9 C12          6.1220     3.7070     2.8770 ca         1 4VK      -0.078500
     10 C13          7.2590     7.2020     2.0850 cp         1 4VK      -0.040000
     11 C14          6.7850     8.3320     1.4230 ca         1 4VK      -0.092000
     12 C15          7.5620     9.4720     1.3630 ca         1 4VK      -0.103000
     13 C16          8.8090     9.4920     1.9610 ca         1 4VK      -0.075000
     14 S            3.8350    -0.0010     1.1980 sy         1 4VK       1.041200
     15 O            4.2360    -0.5450    -0.0530 o          1 4VK      -0.587800
     16 C4           1.3820     0.0000     2.3940 ca         1 4VK       0.005000
     17 C5          -0.0000     0.0000     2.3940 ca         1 4VK      -0.133000
     18 C           -0.6910     0.0060     1.1970 ca         1 4VK      -0.046000
     19 N            4.3260     1.5810     1.1970 n7         1 4VK      -0.584100
     20 C6           4.0310     2.4390     2.3470 c3         1 4VK       0.287100
     21 C18          8.5140     7.2300     2.6900 ca         1 4VK      -0.073000
     22 C17          9.2850     8.3730     2.6200 ca         1 4VK      -0.104300
     23 O2          10.5200     8.8510     4.6180 oh         1 4VK      -0.587800
     24 H1          -0.5420     0.0030    -0.9380 ha         1 4VK       0.109000
     25 H2           1.9240    -0.0050    -0.9380 ha         1 4VK       0.122000
     26 H3           3.4280     4.7790     1.1420 ha         1 4VK       0.108500
     27 H4           4.8000     6.8210     1.0270 ha         1 4VK       0.114000
     28 H5           7.8750     4.8630     3.2900 ha         1 4VK       0.114000
     29 H6           6.4890     2.8290     3.3960 ha         1 4VK       0.108500
     30 H7           5.8080     8.3160     0.9540 ha         1 4VK       0.110000
     31 H8           7.1950    10.3510     0.8480 ha         1 4VK       0.103000
     32 H9           9.4160    10.3880     1.9120 ha         1 4VK       0.105000
     33 H10         11.0730     7.4070     3.2550 h1         1 4VK      -0.013300
     34 H11         11.2910     9.0790     2.7200 h1         1 4VK      -0.013300
     35 H12          1.9240    -0.0030     3.3330 ha         1 4VK       0.122000
     36 H13         -0.5420     0.0030     3.3330 ha         1 4VK       0.109000
     37 H14         -1.7750     0.0060     1.1980 ha         1 4VK       0.102000
     38 H15          4.8400     1.9450     0.4200 hn         1 4VK       0.354800
     39 H16          4.2520     1.9040     3.2630 h1         1 4VK       0.017200
     40 H17          2.9830     2.7130     2.3330 h1         1 4VK       0.017200
     41 H18          8.8880     6.3540     3.2070 ha         1 4VK       0.115000
     42 H19         11.3710     8.8690     5.0230 ho         1 4VK       0.388000
     43 C19         10.6460     8.4020     3.2670 c3         1 4VK       0.283700
     44 O1           4.2360    -0.5450     2.4470 o          1 4VK      -0.587800
@<TRIPOS>BOND
     1     1     2 ar  
     2     1    18 ar  
     3     1    24 1   
     4     2     3 ar  
     5     2    25 1   
     6     3    14 1   
     7     3    16 ar  
     8     4     5 ar  
     9     4     9 ar  
    10     4    20 1   
    11     5     6 ar  
    12     5    26 1   
    13     6     7 ar  
    14     6    27 1   
    15     7     8 ar  
    16     7    10 1   
    17     8     9 ar  
    18     8    28 1   
    19     9    29 1   
    20    10    11 ar  
    21    10    21 ar  
    22    11    12 ar  
    23    11    30 1   
    24    12    13 ar  
    25    12    31 1   
    26    13    22 ar  
    27    13    32 1   
    28    14    15 2   
    29    14    19 1   
    30    14    44 2   
    31    16    17 ar  
    32    16    35 1   
    33    17    18 ar  
    34    17    36 1   
    35    18    37 1   
    36    19    20 1   
    37    19    38 1   
    38    20    39 1   
    39    20    40 1   
    40    21    22 ar  
    41    21    41 1   
    42    22    43 1   
    43    23    42 1   
    44    23    43 1   
    45    33    43 1   
    46    34    43 1   
@<TRIPOS>SUBSTRUCTURE
     1 4VK         1 TEMP              0 ****  ****    0 ROOT
