@<TRIPOS>MOLECULE
molecule
   44    46     1     0     0
SMALL
bcc


@<TRIPOS>ATOM
      1 C1           0.0000     0.0000     0.0000 ca         1 4VK      -0.151000
      2 C2           1.3830     0.0000     0.0000 ca         1 4VK      -0.028500
      3 C3           2.0740     0.0000     1.1970 ca         1 4VK      -0.315500
      4 C7           4.8770     3.6840     2.2750 ca         1 4VK      -0.109300
      5 C8           4.4040     4.8020     1.6120 ca         1 4VK      -0.109000
      6 C9           5.1720     5.9460     1.5470 ca         1 4VK      -0.123500
      7 C10          6.4270     5.9750     2.1510 cp         1 4VK      -0.022000
      8 C11          6.8990     4.8460     2.8190 ca         1 4VK      -0.123500
      9 C12          6.1220     3.7070     2.8770 ca         1 4VK      -0.109000
     10 C13          7.2590     7.2020     2.0850 cp         1 4VK      -0.043000
     11 C14          6.7850     8.3320     1.4230 ca         1 4VK      -0.112000
     12 C15          7.5620     9.4720     1.3630 ca         1 4VK      -0.130000
     13 C16          8.8090     9.4920     1.9610 ca         1 4VK      -0.102000
     14 S            3.8350    -0.0010     1.1980 sy         1 4VK       1.423200
     15 O            4.2360    -0.5450    -0.0530 o          1 4VK      -0.636800
     16 C4           1.3820     0.0000     2.3940 ca         1 4VK      -0.028500
     17 C5          -0.0000     0.0000     2.3940 ca         1 4VK      -0.151000
     18 C           -0.6910     0.0060     1.1970 ca         1 4VK      -0.074000
     19 N            4.3260     1.5810     1.1970 n7         1 4VK      -0.913100
     20 C6           4.0310     2.4390     2.3470 c3         1 4VK       0.283100
     21 C18          8.5140     7.2300     2.6900 ca         1 4VK      -0.095000
     22 C17          9.2850     8.3730     2.6200 ca         1 4VK      -0.085300
     23 O2          10.5200     8.8510     4.6180 oh         1 4VK      -0.603800
     24 H1          -0.5420     0.0030    -0.9380 ha         1 4VK       0.137000
     25 H2           1.9240    -0.0050    -0.9380 ha         1 4VK       0.150000
     26 H3           3.4280     4.7790     1.1420 ha         1 4VK       0.136500
     27 H4           4.8000     6.8210     1.0270 ha         1 4VK       0.137000
     28 H5           7.8750     4.8630     3.2900 ha         1 4VK       0.137000
     29 H6           6.4890     2.8290     3.3960 ha         1 4VK       0.136500
     30 H7           5.8080     8.3160     0.9540 ha         1 4VK       0.133000
     31 H8           7.1950    10.3510     0.8480 ha         1 4VK       0.133000
     32 H9           9.4160    10.3880     1.9120 ha         1 4VK       0.133000
     33 H10         11.0730     7.4070     3.2550 h1         1 4VK       0.026200
     34 H11         11.2910     9.0790     2.7200 h1         1 4VK       0.026200
     35 H12          1.9240    -0.0030     3.3330 ha         1 4VK       0.150000
     36 H13         -0.5420     0.0030     3.3330 ha         1 4VK       0.137000
     37 H14         -1.7750     0.0060     1.1980 ha         1 4VK       0.134000
     38 H15          4.8400     1.9450     0.4200 hn         1 4VK       0.460800
     39 H16          4.2520     1.9040     3.2630 h1         1 4VK       0.052200
     40 H17          2.9830     2.7130     2.3330 h1         1 4VK       0.052200
     41 H18          8.8880     6.3540     3.2070 ha         1 4VK       0.137000
     42 H19         11.3710     8.8690     5.0230 ho         1 4VK       0.402000
     43 C19         10.6460     8.4020     3.2670 c3         1 4VK       0.187700
     44 O1           4.2360    -0.5450     2.4470 o          1 4VK      -0.636800
@<TRIPOS>BOND
     1    17    16 ar  
     2    17    18 ar  
     3    16     3 ar  
     4    44    14 2   
     5    18     1 ar  
     6     3    14 1   
     7     3     2 ar  
     8    14    15 2   
     9    14    19 1   
    10     1     2 ar  
    11    19    20 1   
    12    20     4 1   
    13     4     5 ar  
    14     4     9 ar  
    15     5     6 ar  
    16     9     8 ar  
    17     6     7 ar  
    18     8     7 ar  
    19     7    10 1   
    20    11    10 ar  
    21    11    12 ar  
    22    10    21 ar  
    23    12    13 ar  
    24    21    22 ar  
    25    13    22 ar  
    26    22    43 1   
    27    23    43 1   
    28     1    24 1   
    29     2    25 1   
    30     5    26 1   
    31     6    27 1   
    32     8    28 1   
    33     9    29 1   
    34    11    30 1   
    35    12    31 1   
    36    13    32 1   
    37    43    33 1   
    38    43    34 1   
    39    16    35 1   
    40    17    36 1   
    41    18    37 1   
    42    19    38 1   
    43    20    39 1   
    44    20    40 1   
    45    21    41 1   
    46    23    42 1   
@<TRIPOS>SUBSTRUCTURE
     1 4VK         1 TEMP              0 ****  ****    0 ROOT
