@<TRIPOS>MOLECULE
4VL
   42    44     1     0     0
SMALL
bcc


@<TRIPOS>ATOM
      1 C1           0.0000     0.0000     0.0000 ca         1 4VL      -0.140000
      2 C2           1.3820     0.0000     0.0000 ca         1 4VL       0.112900
      3 C3           2.0760     0.0000     1.2110 cp         1 4VL      -0.029000
      4 C7           3.5600     0.0000     1.2190 cp         1 4VL      -0.233300
      5 C8           4.2740    -0.9240     0.4480 ca         1 4VL      -0.028000
      6 C9           5.6540    -0.8850     0.4870 ca         1 4VL      -0.258300
      7 C10          6.2840     0.0630     1.2860 ca         1 4VL       0.516200
      8 C11          4.2610     0.9240     1.9900 ca         1 4VL       0.450200
      9 C12          8.2390     0.2650    -0.0140 c3         1 4VL       0.133300
     10 C13          9.7640     0.1640     0.0570 c3         1 4VL      -0.012400
     11 C14         10.2990     1.2580     0.9860 c3         1 4VL      -0.156700
     12 C15          9.6580     1.1010     2.3680 c3         1 4VL      -0.012400
     13 C16          8.1360     1.1740     2.2300 c3         1 4VL       0.133300
     14 F            2.0600    -0.0000    -1.1690 f          1 4VL      -0.126900
     15 C4           1.3700     0.0000     2.4120 ca         1 4VL      -0.052000
     16 C5          -0.0100     0.0000     2.3980 ca         1 4VL      -0.121300
     17 C6          -0.7740     0.0000     3.6980 c3         1 4VL       0.286700
     18 O           -1.0160     1.3480     4.1080 oh         1 4VL      -0.586800
     19 C           -0.6930     0.0060     1.1960 ca         1 4VL      -0.066000
     20 N            5.5790     0.9230     2.0050 nb         1 4VL      -0.632000
     21 N1           7.6720     0.1080     1.3310 nh         1 4VL      -0.448300
     22 H1          -0.5410     0.0020    -0.9390 ha         1 4VL       0.115000
     23 H2           3.7560    -1.6510    -0.1660 ha         1 4VL       0.107000
     24 H3           6.2380    -1.5850    -0.0980 ha         1 4VL       0.129000
     25 H4           3.7180     1.6420     2.5910 h4         1 4VL      -0.023900
     26 H5           7.8560    -0.5180    -0.6580 h1         1 4VL       0.009950
     27 H6           7.9600     1.2340    -0.4110 h1         1 4VL       0.009950
     28 H7          10.0430    -0.8080     0.4450 hc         1 4VL       0.029450
     29 H8          10.1810     0.2970    -0.9340 hc         1 4VL       0.029450
     30 H9          10.0480     2.2300     0.5800 hc         1 4VL       0.019700
     31 H10          9.9360     0.1420     2.7880 hc         1 4VL       0.029450
     32 H11         10.0000     1.8990     3.0160 hc         1 4VL       0.029450
     33 H12          7.6800     1.0470     3.2040 h1         1 4VL       0.009950
     34 H13          7.8580     2.1370     1.8190 h1         1 4VL       0.009950
     35 H14          1.9040     0.0000     3.3550 ha         1 4VL       0.118000
     36 H15         -0.1950    -0.5100     4.4580 h1         1 4VL      -0.014300
     37 H16         -1.7200    -0.5100     3.5610 h1         1 4VL      -0.014300
     38 H17         -1.4930     1.3480     4.9210 ho         1 4VL       0.385000
     39 H18         -1.7770     0.0060     1.1920 ha         1 4VL       0.104000
     40 C17         11.7950     1.1260     1.1080 c          1 4VL       0.984600
     41 O2          12.3750     0.2490     0.5120 o          1 4VL      -0.898300
     42 O1          12.4850     1.9840     1.8770 o          1 4VL      -0.898300
@<TRIPOS>BOND
     1     1     2 ar  
     2     1    19 ar  
     3     1    22 1   
     4     2     3 ar  
     5     2    14 1   
     6     3     4 1   
     7     3    15 ar  
     8     4     5 ar  
     9     4     8 ar  
    10     5     6 ar  
    11     5    23 1   
    12     6     7 ar  
    13     6    24 1   
    14     7    20 ar  
    15     7    21 1   
    16     8    20 ar  
    17     8    25 1   
    18     9    10 1   
    19     9    21 1   
    20     9    26 1   
    21     9    27 1   
    22    10    11 1   
    23    10    28 1   
    24    10    29 1   
    25    11    12 1   
    26    11    30 1   
    27    11    40 1   
    28    12    13 1   
    29    12    31 1   
    30    12    32 1   
    31    13    21 1   
    32    13    33 1   
    33    13    34 1   
    34    15    16 ar  
    35    15    35 1   
    36    16    17 1   
    37    16    19 ar  
    38    17    18 1   
    39    17    36 1   
    40    17    37 1   
    41    18    38 1   
    42    19    39 1   
    43    40    41 1   
    44    40    42 1   
@<TRIPOS>SUBSTRUCTURE
     1 4VL         1 TEMP              0 ****  ****    0 ROOT
