@<TRIPOS>MOLECULE
molecule
   62    66     1     0     0
SMALL
bcc


@<TRIPOS>ATOM
      1 C1           0.0000     0.0000     0.0000 ca         1 4VM      -0.075000
      2 C2           1.4070     0.0000     0.0000 ca         1 4VM      -0.161300
      3 C3           2.1390     0.0000     1.2000 ca         1 4VM      -0.092000
      4 C7           2.0940    -0.0000    -1.2390 ca         1 4VM       0.422600
      5 C8           0.0930    -0.0020    -2.3870 ca         1 4VM       0.436200
      6 C10          5.2240    -1.6260     3.9950 c          1 4VM       0.658100
      7 C11          5.4860    -3.0480     4.4240 c3         1 4VM      -0.149700
      8 C12          4.1530    -3.7690     4.6460 c3         1 4VM      -0.068400
      9 C13          3.3850    -3.0750     5.7740 c3         1 4VM       0.164300
     10 C14          5.4520    -2.3770     6.8290 c3         1 4VM       0.164300
     11 C15          6.2810    -3.0490     5.7320 c3         1 4VM      -0.068400
     12 C16          3.4690    -2.5990     8.0800 ca         1 4VM       0.623200
     13 C19          2.0850    -1.5960    10.2040 cp         1 4VM      -0.203300
     14 C20          3.3220    -1.0870     9.8180 ca         1 4VM       0.464200
     15 C21          1.3650    -1.0200    11.3660 cp         1 4VM      -0.068000
     16 C22          2.0270    -0.8400    12.5790 ca         1 4VM      -0.074000
     17 C24          0.0210     0.0540    13.5360 ca         1 4VM      -0.083000
     18 C26          0.0250    -0.6520    11.2470 ca         1 4VM       0.143900
     19 C25         -0.6400    -0.1160    12.3350 ca         1 4VM      -0.169000
     20 C23          1.3520    -0.3040    13.6570 ca         1 4VM      -0.100300
     21 O1           2.6610     1.1910    15.0000 oh         1 4VM      -0.603800
     22 C18          1.5300    -2.6580     9.4810 ca         1 4VM      -0.053000
     23 C17          2.2370    -3.1600     8.4060 ca         1 4VM      -0.274300
     24 N3           3.9660    -1.5950     8.7860 nb         1 4VM      -0.733000
     25 N2           4.1880    -3.1040     7.0030 nh         1 4VM      -0.702300
     26 O            5.6340    -0.7060     4.6680 o          1 4VM      -0.604100
     27 N1           4.5350    -1.3810     2.8630 ns         1 4VM      -0.586900
     28 C4           3.4980     0.0000     1.1570 ca         1 4VM      -0.116300
     29 C5           4.1770    -0.0000    -0.0600 ca         1 4VM      -0.111000
     30 C6           3.5000     0.0000    -1.2400 ca         1 4VM      -0.163300
     31 N            1.4030    -0.0010    -2.3830 nb         1 4VM      -0.680000
     32 C           -0.6440    -0.0010    -1.2050 ca         1 4VM      -0.257300
     33 H1          -0.5570     0.0010     0.9290 ha         1 4VM       0.141000
     34 H2           1.6260     0.1180     2.1470 ha         1 4VM       0.140000
     35 H3          -0.4320    -0.0030    -3.3340 h4         1 4VM       0.024100
     36 H4           5.2260     0.5100     2.2940 h1         1 4VM       0.060200
     37 H5           3.7150     0.5110     3.2140 h1         1 4VM       0.060200
     38 H6           6.0510    -3.5650     3.6580 hc         1 4VM       0.066700
     39 H7           3.5670    -3.7310     3.7350 hc         1 4VM       0.055450
     40 H8           4.3410    -4.8000     4.9190 hc         1 4VM       0.055450
     41 H9           2.4490    -3.5930     5.9430 h1         1 4VM       0.061200
     42 H10          3.1900    -2.0460     5.4960 h1         1 4VM       0.061200
     43 H11          6.0070    -2.3910     7.7590 h1         1 4VM       0.061200
     44 H12          5.2420    -1.3530     6.5440 h1         1 4VM       0.061200
     45 H13          6.4990    -4.0710     6.0200 hc         1 4VM       0.055450
     46 H14          7.2060    -2.5020     5.5920 hc         1 4VM       0.055450
     47 H15          3.7600    -0.2650    10.3710 h4         1 4VM       0.029100
     48 H16          3.0690    -1.1200    12.6760 ha         1 4VM       0.145000
     49 H17         -0.5030     0.4750    14.3860 ha         1 4VM       0.139000
     50 H18          2.8400    -0.8620    15.0750 h1         1 4VM       0.027200
     51 H19          1.3590    -0.2020    15.7850 h1         1 4VM       0.027200
     52 H20         -1.6820     0.1690    12.2450 ha         1 4VM       0.147000
     53 H21          3.1090     1.3130    15.8210 ho         1 4VM       0.403000
     54 H22          0.5700    -3.0750     9.7570 ha         1 4VM       0.144000
     55 H23          1.8380    -3.9820     7.8230 ha         1 4VM       0.143000
     56 H24          4.2420    -2.1410     2.2820 hn         1 4VM       0.317500
     57 H25          5.2600     0.0000    -0.0670 ha         1 4VM       0.139000
     58 H26          4.0430    -0.0000    -2.1770 ha         1 4VM       0.152000
     59 H27         -1.7260    -0.0010    -1.2410 ha         1 4VM       0.139000
     60 C9           4.2820    -0.0000     2.4450 c3         1 4VM       0.157300
     61 C27          2.0670    -0.1090    14.9700 c3         1 4VM       0.189700
     62 F           -0.6220    -0.8190    10.0730 f          1 4VM      -0.137900
@<TRIPOS>BOND
     1    60    28 1   
     2    60    27 1   
     3    28     3 ar  
     4    28    29 ar  
     5     3     2 ar  
     6    29    30 ar  
     7    26     6 2   
     8    30     4 ar  
     9     2     1 ar  
    10     2     4 ar  
    11     1    32 ar  
    12     4    31 ar  
    13    32     5 ar  
    14    31     5 ar  
    15    27     6 1   
    16     6     7 1   
    17     7    11 1   
    18     7     8 1   
    19    11    10 1   
    20     8     9 1   
    21    61    21 1   
    22    61    20 1   
    23    16    20 ar  
    24    16    15 ar  
    25    10    25 1   
    26    20    17 ar  
    27    24    14 ar  
    28    24    12 ar  
    29    14    13 ar  
    30    25     9 1   
    31    25    12 1   
    32    12    23 ar  
    33    13    15 1   
    34    13    22 ar  
    35    23    22 ar  
    36    15    18 ar  
    37    17    19 ar  
    38    18    19 ar  
    39    18    62 1   
    40     1    33 1   
    41     3    34 1   
    42     5    35 1   
    43    60    36 1   
    44    60    37 1   
    45     7    38 1   
    46     8    39 1   
    47     8    40 1   
    48     9    41 1   
    49     9    42 1   
    50    10    43 1   
    51    10    44 1   
    52    11    45 1   
    53    11    46 1   
    54    14    47 1   
    55    16    48 1   
    56    17    49 1   
    57    61    50 1   
    58    61    51 1   
    59    19    52 1   
    60    21    53 1   
    61    22    54 1   
    62    23    55 1   
    63    27    56 1   
    64    29    57 1   
    65    30    58 1   
    66    32    59 1   
@<TRIPOS>SUBSTRUCTURE
     1 4VM         1 TEMP              0 ****  ****    0 ROOT
