@<TRIPOS>MOLECULE
4VM
   62    66     1     0     0
SMALL
bcc


@<TRIPOS>ATOM
      1 C1           0.0000     0.0000     0.0000 ca         1 4VM      -0.051000
      2 C2           1.4070     0.0000     0.0000 ca         1 4VM      -0.154300
      3 C3           2.1390     0.0000     1.2000 ca         1 4VM      -0.063000
      4 C7           2.0940    -0.0000    -1.2390 ca         1 4VM       0.376600
      5 C8           0.0930    -0.0020    -2.3870 ca         1 4VM       0.416200
      6 C10          5.2240    -1.6260     3.9950 c          1 4VM       0.573100
      7 C11          5.4860    -3.0480     4.4240 c3         1 4VM      -0.123700
      8 C12          4.1530    -3.7690     4.6460 c3         1 4VM      -0.011400
      9 C13          3.3850    -3.0750     5.7740 c3         1 4VM       0.124300
     10 C14          5.4520    -2.3770     6.8290 c3         1 4VM       0.124300
     11 C15          6.2810    -3.0490     5.7320 c3         1 4VM      -0.011400
     12 C16          3.4690    -2.5990     8.0800 ca         1 4VM       0.495200
     13 C19          2.0850    -1.5960    10.2040 cp         1 4VM      -0.194300
     14 C20          3.3220    -1.0870     9.8180 ca         1 4VM       0.446200
     15 C21          1.3650    -1.0200    11.3660 cp         1 4VM      -0.052000
     16 C22          2.0270    -0.8400    12.5790 ca         1 4VM      -0.048000
     17 C24          0.0210     0.0540    13.5360 ca         1 4VM      -0.054000
     18 C26          0.0250    -0.6520    11.2470 ca         1 4VM       0.114900
     19 C25         -0.6400    -0.1160    12.3350 ca         1 4VM      -0.135000
     20 C23          1.3520    -0.3040    13.6570 ca         1 4VM      -0.116300
     21 O1           2.6610     1.1910    15.0000 oh         1 4VM      -0.587800
     22 C18          1.5300    -2.6580     9.4810 ca         1 4VM      -0.027000
     23 C17          2.2370    -3.1600     8.4060 ca         1 4VM      -0.251300
     24 N3           3.9660    -1.5950     8.7860 nb         1 4VM      -0.618000
     25 N2           4.1880    -3.1040     7.0030 nh         1 4VM      -0.466300
     26 O            5.6340    -0.7060     4.6680 o          1 4VM      -0.641100
     27 N1           4.5350    -1.3810     2.8630 ns         1 4VM      -0.202900
     28 C4           3.4980     0.0000     1.1570 ca         1 4VM      -0.122300
     29 C5           4.1770    -0.0000    -0.0600 ca         1 4VM      -0.085000
     30 C6           3.5000     0.0000    -1.2400 ca         1 4VM      -0.137300
     31 N            1.4030    -0.0010    -2.3830 nb         1 4VM      -0.568000
     32 C           -0.6440    -0.0010    -1.2050 ca         1 4VM      -0.223300
     33 H1          -0.5570     0.0010     0.9290 ha         1 4VM       0.112000
     34 H2           1.6260     0.1180     2.1470 ha         1 4VM       0.114000
     35 H3          -0.4320    -0.0030    -3.3340 h4         1 4VM      -0.021900
     36 H4           5.2260     0.5100     2.2940 h1         1 4VM       0.030700
     37 H5           3.7150     0.5110     3.2140 h1         1 4VM       0.030700
     38 H6           6.0510    -3.5650     3.6580 hc         1 4VM       0.037700
     39 H7           3.5670    -3.7310     3.7350 hc         1 4VM       0.023700
     40 H8           4.3410    -4.8000     4.9190 hc         1 4VM       0.023700
     41 H9           2.4490    -3.5930     5.9430 h1         1 4VM       0.036950
     42 H10          3.1900    -2.0460     5.4960 h1         1 4VM       0.036950
     43 H11          6.0070    -2.3910     7.7590 h1         1 4VM       0.036950
     44 H12          5.2420    -1.3530     6.5440 h1         1 4VM       0.036950
     45 H13          6.4990    -4.0710     6.0200 hc         1 4VM       0.023700
     46 H14          7.2060    -2.5020     5.5920 hc         1 4VM       0.023700
     47 H15          3.7600    -0.2650    10.3710 h4         1 4VM      -0.014900
     48 H16          3.0690    -1.1200    12.6760 ha         1 4VM       0.117000
     49 H17         -0.5030     0.4750    14.3860 ha         1 4VM       0.109000
     50 H18          2.8400    -0.8620    15.0750 h1         1 4VM      -0.011800
     51 H19          1.3590    -0.2020    15.7850 h1         1 4VM      -0.011800
     52 H20         -1.6820     0.1690    12.2450 ha         1 4VM       0.119000
     53 H21          3.1090     1.3130    15.8210 ho         1 4VM       0.390000
     54 H22          0.5700    -3.0750     9.7570 ha         1 4VM       0.115000
     55 H23          1.8380    -3.9820     7.8230 ha         1 4VM       0.123000
     56 H24          4.2420    -2.1410     2.2820 hn         1 4VM       0.180500
     57 H25          5.2600     0.0000    -0.0670 ha         1 4VM       0.110000
     58 H26          4.0430    -0.0000    -2.1770 ha         1 4VM       0.120000
     59 H27         -1.7260    -0.0010    -1.2410 ha         1 4VM       0.113000
     60 C9           4.2820    -0.0000     2.4450 c3         1 4VM       0.109300
     61 C27          2.0670    -0.1090    14.9700 c3         1 4VM       0.285700
     62 F           -0.6220    -0.8190    10.0730 f          1 4VM      -0.127900
@<TRIPOS>BOND
     1     1     2 ar  
     2     1    32 ar  
     3     1    33 1   
     4     2     3 ar  
     5     2     4 ar  
     6     3    28 ar  
     7     3    34 1   
     8     4    30 ar  
     9     4    31 ar  
    10     5    31 ar  
    11     5    32 ar  
    12     5    35 1   
    13     6     7 1   
    14     6    26 2   
    15     6    27 1   
    16     7     8 1   
    17     7    11 1   
    18     7    38 1   
    19     8     9 1   
    20     8    39 1   
    21     8    40 1   
    22     9    25 1   
    23     9    41 1   
    24     9    42 1   
    25    10    11 1   
    26    10    25 1   
    27    10    43 1   
    28    10    44 1   
    29    11    45 1   
    30    11    46 1   
    31    12    23 ar  
    32    12    24 ar  
    33    12    25 1   
    34    13    14 ar  
    35    13    15 1   
    36    13    22 ar  
    37    14    24 ar  
    38    14    47 1   
    39    15    16 ar  
    40    15    18 ar  
    41    16    20 ar  
    42    16    48 1   
    43    17    19 ar  
    44    17    20 ar  
    45    17    49 1   
    46    18    19 ar  
    47    18    62 1   
    48    19    52 1   
    49    20    61 1   
    50    21    53 1   
    51    21    61 1   
    52    22    23 ar  
    53    22    54 1   
    54    23    55 1   
    55    27    56 1   
    56    27    60 1   
    57    28    29 ar  
    58    28    60 1   
    59    29    30 ar  
    60    29    57 1   
    61    30    58 1   
    62    32    59 1   
    63    36    60 1   
    64    37    60 1   
    65    50    61 1   
    66    51    61 1   
@<TRIPOS>SUBSTRUCTURE
     1 4VM         1 TEMP              0 ****  ****    0 ROOT
