@<TRIPOS>MOLECULE
4VN
   42    44     1     0     0
SMALL
bcc


@<TRIPOS>ATOM
      1 C1           0.0000     0.0000     0.0000 ca         1 4VN      -0.106000
      2 C2           1.3810     0.0000     0.0000 ca         1 4VN      -0.029600
      3 C3           2.0760     0.0000     1.2090 cp         1 4VN       0.006000
      4 C7           3.5590     0.0010     1.2160 cp         1 4VN      -0.241300
      5 C8           4.2730    -0.9180     0.4390 ca         1 4VN      -0.029000
      6 C9           5.6520    -0.8790     0.4780 ca         1 4VN      -0.243300
      7 C10          6.2840     0.0650     1.2820 ca         1 4VN       0.524200
      8 C11          4.2600     0.9200     1.9920 ca         1 4VN       0.456200
      9 C12          8.0690     1.4000     2.3360 c3         1 4VN       0.139300
     10 C13          9.5900     1.3680     2.4950 c3         1 4VN      -0.012400
     11 C14         10.2450     1.5420     1.1210 c3         1 4VN      -0.156700
     12 C15          9.7510     0.4350     0.1850 c3         1 4VN      -0.012400
     13 C16          8.2250     0.4940     0.0940 c3         1 4VN       0.139300
     14 Cl           2.2510     0.0010    -1.5020 cl         1 4VN      -0.020400
     15 C4           1.3710    -0.0010     2.4110 ca         1 4VN      -0.067000
     16 C5          -0.0100    -0.0020     2.3990 ca         1 4VN      -0.108300
     17 C6          -0.7740     0.0040     3.6980 c3         1 4VN       0.284700
     18 O           -1.0260    -1.3410     4.1090 oh         1 4VN      -0.585800
     19 C           -0.6940     0.0050     1.1960 ca         1 4VN      -0.084000
     20 N            5.5780     0.9210     2.0060 nb         1 4VN      -0.661000
     21 N1           7.6470     0.3220     1.4330 nh         1 4VN      -0.444300
     22 H1          -0.5410     0.0030    -0.9390 ha         1 4VN       0.110000
     23 H2           3.7560    -1.6430    -0.1780 ha         1 4VN       0.111000
     24 H3           6.2370    -1.5760    -0.1110 ha         1 4VN       0.124000
     25 H4           3.7170     1.6360     2.5970 h4         1 4VN      -0.027900
     26 H5           7.6030     1.2610     3.3050 h1         1 4VN       0.008700
     27 H6           7.7710     2.3550     1.9210 h1         1 4VN       0.008700
     28 H7           9.9020     2.1740     3.1470 hc         1 4VN       0.029200
     29 H8           9.8880     0.4170     2.9180 hc         1 4VN       0.029200
     30 H9           9.9730     2.5080     0.7120 hc         1 4VN       0.018700
     31 H10         10.0520    -0.5290     0.5780 hc         1 4VN       0.029200
     32 H11         10.1770     0.5790    -0.8000 hc         1 4VN       0.029200
     33 H12          7.8720    -0.2990    -0.5550 h1         1 4VN       0.008700
     34 H13          7.9260     1.4550    -0.3070 h1         1 4VN       0.008700
     35 H14          1.9050    -0.0010     3.3530 ha         1 4VN       0.118000
     36 H15         -0.1910     0.5100     4.4570 h1         1 4VN      -0.014300
     37 H16         -1.7150     0.5220     3.5610 h1         1 4VN      -0.014300
     38 H17         -1.6050    -1.3390     4.8520 ho         1 4VN       0.384000
     39 H18         -1.7770     0.0040     1.1920 ha         1 4VN       0.103000
     40 C17         11.7430     1.4510     1.2620 c          1 4VN       0.984600
     41 O2          12.5280     1.5760     0.1800 o          1 4VN      -0.898800
     42 O1          12.2370     1.2670     2.3490 o          1 4VN      -0.898800
@<TRIPOS>BOND
     1     1     2 ar  
     2     1    19 ar  
     3     1    22 1   
     4     2     3 ar  
     5     2    14 1   
     6     3     4 1   
     7     3    15 ar  
     8     4     5 ar  
     9     4     8 ar  
    10     5     6 ar  
    11     5    23 1   
    12     6     7 ar  
    13     6    24 1   
    14     7    20 ar  
    15     7    21 1   
    16     8    20 ar  
    17     8    25 1   
    18     9    10 1   
    19     9    21 1   
    20     9    26 1   
    21     9    27 1   
    22    10    11 1   
    23    10    28 1   
    24    10    29 1   
    25    11    12 1   
    26    11    30 1   
    27    11    40 1   
    28    12    13 1   
    29    12    31 1   
    30    12    32 1   
    31    13    21 1   
    32    13    33 1   
    33    13    34 1   
    34    15    16 ar  
    35    15    35 1   
    36    16    17 1   
    37    16    19 ar  
    38    17    18 1   
    39    17    36 1   
    40    17    37 1   
    41    18    38 1   
    42    19    39 1   
    43    40    41 1   
    44    40    42 1   
@<TRIPOS>SUBSTRUCTURE
     1 4VN         1 TEMP              0 ****  ****    0 ROOT
