@<TRIPOS>MOLECULE
molecule
   64    70     1     0     0
SMALL
bcc


@<TRIPOS>ATOM
      1 CAP          1.5350     0.0000     0.0000 c3         1 4VO      -0.041400
      2 CAO          2.0080     1.2140     0.8080 c3         1 4VO       0.149800
      3 NBB          1.5090     2.4430     0.1810 n3         1 4VO      -0.727600
      4 CAB          2.0150     3.6330     0.8780 c3         1 4VO       0.153100
      5 CAZ          0.0530     2.4750     0.0810 c3         1 4VO       0.192500
      6 CAQ         -0.6080     2.5350     1.4500 c3         1 4VO      -0.067100
      7 CAW         -0.7200     1.1810     2.0980 ca         1 4VO      -0.102300
      8 CAM         -1.1060     1.1370     3.4330 ca         1 4VO      -0.101000
      9 CAL         -1.2530    -0.0680     4.0840 ca         1 4VO      -0.201000
     10 CAU         -1.0210    -1.2550     3.4040 ca         1 4VO       0.123100
     11 OAD         -1.1730    -2.4480     4.0360 oh         1 4VO      -0.509100
     12 CAN         -0.6320    -1.2150     2.0740 ca         1 4VO      -0.153000
     13 CAX         -0.4720     0.0000     1.4290 ca         1 4VO      -0.032300
     14 CBF          0.0000     0.0000     0.0000 c3         1 4VO       0.003300
     15 CBA         -0.5110    -1.2260    -0.7610 c3         1 4VO       0.144500
     16 NAS          0.6350    -1.7470    -1.5560 n7         1 4VO      -0.795200
     17 CBE         -1.5130    -0.7480    -1.8400 c3         1 4VO       0.148000
     18 OAT         -2.1550    -1.8510    -2.4830 os         1 4VO      -0.409600
     19 CAA         -2.9920    -2.6220    -1.6180 c3         1 4VO       0.115700
     20 CAF         -2.5200     0.2030    -1.2570 c2         1 4VO      -0.188200
     21 CAE         -2.0150     1.2710    -0.6440 c2         1 4VO      -0.155200
     22 CBD         -0.4820     1.2800    -0.6890 c3         1 4VO      -0.023800
     23 CAR         -0.0230     1.2670    -2.1450 c3         1 4VO      -0.048400
     24 CBC         -0.5570    -0.0150    -2.8130 c3         1 4VO      -0.055000
     25 CAC         -1.1730     0.2210    -4.1920 c3         1 4VO      -0.067100
     26 CAY          0.6760    -1.0060    -2.8330 c3         1 4VO       0.205800
     27 CAV          0.5430    -1.9640    -3.9890 ca         1 4VO      -0.100300
     28 CAJ         -0.3190    -3.0400    -3.9000 ca         1 4VO      -0.119000
     29 CAH         -0.4400    -3.9190    -4.9600 ca         1 4VO      -0.131000
     30 CAG          0.3020    -3.7210    -6.1100 ca         1 4VO      -0.129000
     31 CAI          1.1650    -2.6440    -6.1990 ca         1 4VO      -0.131000
     32 CAK          1.2820    -1.7630    -5.1400 ca         1 4VO      -0.119000
     33 H1           1.9000    -0.9100     0.4610 hc         1 4VO       0.067200
     34 H2           1.9010     0.0730    -1.0170 hc         1 4VO       0.067200
     35 H3           3.0910     1.2340     0.8260 h1         1 4VO       0.039200
     36 H4           1.6260     1.1450     1.8190 h1         1 4VO       0.039200
     37 H6           2.0520     3.4390     1.9430 h1         1 4VO       0.032033
     38 H7           3.0100     3.8660     0.5180 h1         1 4VO       0.032033
     39 H8           1.3560     4.4710     0.6860 h1         1 4VO       0.032033
     40 H9          -0.2230     3.3710    -0.4620 h1         1 4VO       0.063700
     41 H10         -1.6080     2.9340     1.3260 hc         1 4VO       0.057200
     42 H11         -0.0040     3.1670     2.0900 hc         1 4VO       0.057200
     43 H12         -1.2880     2.0600     3.9690 ha         1 4VO       0.130000
     44 H13         -1.6050    -0.0910     5.1080 ha         1 4VO       0.133000
     45 H14         -0.8130    -2.3920     4.9060 ho         1 4VO       0.422000
     46 H15         -0.4500    -2.1380     1.5380 ha         1 4VO       0.148000
     47 H16         -0.9350    -1.9770    -0.1050 h1         1 4VO       0.082700
     48 H17          0.4990    -2.7210    -1.7390 hn         1 4VO       0.360800
     49 H19         -3.7940    -3.0670    -2.1950 h1         1 4VO       0.035367
     50 H20         -3.4120    -1.9790    -0.8540 h1         1 4VO       0.035367
     51 H21         -2.4070    -3.4040    -1.1510 h1         1 4VO       0.035367
     52 H22         -3.5300     0.2300    -1.6480 ha         1 4VO       0.146000
     53 H24         -2.5350     1.7070     0.2000 ha         1 4VO       0.153000
     54 H26          1.0590     1.2770    -2.1860 hc         1 4VO       0.063700
     55 H27         -0.4160     2.1370    -2.6580 hc         1 4VO       0.063700
     56 H28         -0.4060     0.5600    -4.8780 hc         1 4VO       0.044700
     57 H29         -1.9490     0.9740    -4.1180 hc         1 4VO       0.044700
     58 H30         -1.6020    -0.7040    -4.5590 hc         1 4VO       0.044700
     59 H31          1.6010    -0.4490    -2.9130 h1         1 4VO       0.079700
     60 H32         -0.9000    -3.1950    -2.9990 ha         1 4VO       0.141000
     61 H33         -1.1160    -4.7620    -4.8900 ha         1 4VO       0.127000
     62 H34          0.2090    -4.4100    -6.9400 ha         1 4VO       0.126000
     63 H35          1.7450    -2.4880    -7.1010 ha         1 4VO       0.127000
     64 H36          1.9580    -0.9190    -5.2090 ha         1 4VO       0.141000
@<TRIPOS>BOND
     1    19    18 1   
     2    18    17 1   
     3    28    29 ar  
     4    28    27 ar  
     5    25    24 1   
     6    29    30 ar  
     7    17    20 1   
     8    17    24 1   
     9    17    15 1   
    10    20    21 2   
    11    16    15 1   
    12    16    26 1   
    13    24    26 1   
    14    24    23 1   
    15    15    14 1   
    16    26    27 1   
    17    27    32 ar  
    18    30    31 ar  
    19    11    10 1   
    20    21    22 1   
    21    12    10 ar  
    22    12    13 ar  
    23    10     9 ar  
    24    32    31 ar  
    25    23    22 1   
    26    14    13 1   
    27    14    22 1   
    28    14     1 1   
    29    13     7 ar  
    30    22     5 1   
    31     9     8 ar  
    32     1     2 1   
    33     7     8 ar  
    34     7     6 1   
    35     5     6 1   
    36     5     3 1   
    37     2     3 1   
    38     3     4 1   
    39     1    33 1   
    40     1    34 1   
    41     2    35 1   
    42     2    36 1   
    43     4    37 1   
    44     4    38 1   
    45     4    39 1   
    46     5    40 1   
    47     6    41 1   
    48     6    42 1   
    49     8    43 1   
    50     9    44 1   
    51    11    45 1   
    52    12    46 1   
    53    15    47 1   
    54    16    48 1   
    55    19    49 1   
    56    19    50 1   
    57    19    51 1   
    58    20    52 1   
    59    21    53 1   
    60    23    54 1   
    61    23    55 1   
    62    25    56 1   
    63    25    57 1   
    64    25    58 1   
    65    26    59 1   
    66    28    60 1   
    67    29    61 1   
    68    30    62 1   
    69    31    63 1   
    70    32    64 1   
@<TRIPOS>SUBSTRUCTURE
     1 4VO         1 TEMP              0 ****  ****    0 ROOT
