@<TRIPOS>MOLECULE
4VP
   17    17     1     0     0
SMALL
bcc


@<TRIPOS>ATOM
      1 C2         -0.0080   -0.1420   -0.0840 c2        1 4VP     -0.215000
      2 C3          1.3080    0.0490    0.0340 ce        1 4VP     -0.106200
      3 C1'         2.0490    0.0690    1.2840 ca        1 4VP     -0.092800
      4 C6'         3.4460   -0.0930    1.2540 ca        1 4VP     -0.082500
      5 C5'         4.1940   -0.0820    2.4240 ca        1 4VP     -0.186500
      6 C4'         3.5380    0.1020    3.6530 ca        1 4VP      0.127100
      7 O4'         4.3300    0.1050    4.7780 oh        1 4VP     -0.497100
      8 C3'         2.1480    0.2720    3.7030 ca        1 4VP     -0.186500
      9 C2'         1.4150    0.2550    2.5200 ca        1 4VP     -0.082500
     10 H1         -0.6730   -0.3100    0.7720 ha        1 4VP      0.113000
     11 H2         -0.5050   -0.1460   -1.0630 ha        1 4VP      0.113000
     12 H3          1.9260    0.1990   -0.8700 ha        1 4VP      0.122000
     13 H4          3.9550   -0.2350    0.2880 ha        1 4VP      0.135000
     14 H5          5.2850   -0.2120    2.4060 ha        1 4VP      0.142500
     15 H6          3.7560    0.2390    5.5460 ho        1 4VP      0.419000
     16 H7          1.6420    0.4190    4.6680 ha        1 4VP      0.142500
     17 H8          0.3240    0.3940    2.5610 ha        1 4VP      0.135000
@<TRIPOS>BOND
     1    1    2 2   
     2    1   10 1   
     3    1   11 1   
     4    2    3 1   
     5    2   12 1   
     6    3    4 ar  
     7    3    9 ar  
     8    4    5 ar  
     9    4   13 1   
    10    5    6 ar  
    11    5   14 1   
    12    6    7 1   
    13    6    8 ar  
    14    7   15 1   
    15    8    9 ar  
    16    8   16 1   
    17    9   17 1   
@<TRIPOS>SUBSTRUCTURE
     1 4VP         1 TEMP              0 ****  ****    0 ROOT
