@<TRIPOS>MOLECULE
molecule
   17    17     1     0     0
SMALL
bcc


@<TRIPOS>ATOM
      1 C2           0.0000     0.0000     0.0000 c2         1 4VP      -0.212000
      2 C3           1.3270     0.0000     0.0000 ce         1 4VP      -0.116200
      3 C1'          2.0650     0.0000     1.2800 ca         1 4VP      -0.066800
      4 C6'          3.4610    -0.0000     1.2820 ca         1 4VP      -0.107500
      5 C5'          4.1470    -0.0000     2.4770 ca         1 4VP      -0.151500
      6 C4'          3.4510    -0.0010     3.6790 ca         1 4VP       0.104100
      7 O4'          4.1300    -0.0070     4.8560 oh         1 4VP      -0.523100
      8 C3'          2.0630    -0.0020     3.6810 ca         1 4VP      -0.151500
      9 C2'          1.3700     0.0060     2.4900 ca         1 4VP      -0.107500
     10 H1          -0.5420    -0.0000    -0.9380 ha         1 4VP       0.116000
     11 H2          -0.5420     0.0000     0.9380 ha         1 4VP       0.116000
     12 H3           1.8680    -0.0000    -0.9380 ha         1 4VP       0.129000
     13 H4           4.0040    -0.0000     0.3450 ha         1 4VP       0.136000
     14 H5           5.2300    -0.0010     2.4790 ha         1 4VP       0.140000
     15 H6           4.2900     0.8810     5.1310 ho         1 4VP       0.419000
     16 H7           1.5230     0.0010     4.6200 ha         1 4VP       0.140000
     17 H8           0.2860     0.0050     2.4930 ha         1 4VP       0.136000
@<TRIPOS>BOND
     1     7     6 1
     2     6     8 ar
     3     6     5 ar
     4     8     9 ar
     5     5     4 ar
     6     9     3 ar
     7     4     3 ar
     8     3     2 1
     9     2     1 2
    10     1    10 1
    11     1    11 1
    12     2    12 1
    13     4    13 1
    14     5    14 1
    15     7    15 1
    16     8    16 1
    17     9    17 1
@<TRIPOS>SUBSTRUCTURE
     1 4VP         1 TEMP              0 ****  ****    0 ROOT
