@<TRIPOS>MOLECULE
4VQ
   49    51     1     0     0
SMALL
bcc


@<TRIPOS>ATOM
      1 CAD          0.0000     0.0000     0.0000 c3         1 4VQ       0.057200
      2 CAT          1.5080     0.0000     0.0000 ca         1 4VQ      -0.060300
      3 CAK          2.1960     0.0000     1.1920 ca         1 4VQ      -0.104000
      4 CBA          2.2060    -0.0070    -1.2100 ca         1 4VQ      -0.089600
      5 CAS          1.4700    -0.0130    -2.4880 c          1 4VQ       0.972200
      6 OAG          0.2600     0.0990    -2.4930 o          1 4VQ      -0.881800
      7 OAF          2.1380    -0.1430    -3.6510 o          1 4VQ      -0.881800
      8 CAI          3.6040    -0.0080    -1.2080 ca         1 4VQ      -0.066000
      9 CAH          4.2910    -0.0020    -0.0160 ca         1 4VQ      -0.146000
     10 CAV          3.5910    -0.0010     1.1930 cp         1 4VQ      -0.193500
     11 CBB          4.3310     0.0000     2.4760 cp         1 4VQ       0.311500
     12 NAO          3.9560    -0.8060     3.4610 nb         1 4VQ      -0.502000
     13 CAU          5.4350     0.8510     2.6520 ca         1 4VQ       0.395900
     14 NAE          5.8340     1.6920     1.6250 nv         1 4VQ      -0.547500
     15 NAN          6.0940     0.8480     3.8030 nb         1 4VQ      -0.628000
     16 CAJ          5.7150     0.0470     4.7830 ca         1 4VQ       0.314900
     17 CAX          4.6220    -0.8030     4.6110 cp         1 4VQ       0.245500
     18 CAW          4.2040    -1.7030     5.7120 cp         1 4VQ      -0.040500
     19 CAM          4.8350    -1.6270     6.9530 ca         1 4VQ      -0.234000
     20 CAL          3.1770    -2.6220     5.5100 ca         1 4VQ      -0.234000
     21 CAY          2.7870    -3.4620     6.5390 ca         1 4VQ       0.159100
     22 OAP          1.7850    -4.3600     6.3410 os         1 4VQ      -0.299400
     23 CAA          1.1790    -4.3810     5.0480 c3         1 4VQ       0.237700
     24 CBC          3.4220    -3.3890     7.7740 ca         1 4VQ       0.030100
     25 OAR          3.0380    -4.2150     8.7850 os         1 4VQ      -0.310900
     26 CAC          3.7060    -5.4750     8.8810 c3         1 4VQ       0.249700
     27 CAZ          4.4440    -2.4680     7.9790 ca         1 4VQ       0.159100
     28 OAQ          5.0590    -2.3950     9.1910 os         1 4VQ      -0.299400
     29 CAB          6.1000    -1.4260     9.3310 c3         1 4VQ       0.237700
     30 HAD1        -0.3610    -0.8650    -0.5430 hc         1 4VQ       0.013700
     31 HAD2        -0.3610    -0.0380     1.0210 hc         1 4VQ       0.013700
     32 HAD3        -0.3610     0.9030    -0.4770 hc         1 4VQ       0.013700
     33 HAK          1.6540     0.0010     2.1300 ha         1 4VQ       0.102000
     34 HAI          4.1470    -0.0110    -2.1450 ha         1 4VQ       0.131000
     35 HAH          5.3740    -0.0030    -0.0150 ha         1 4VQ       0.093000
     36 HAE1         6.8080     1.8560     1.4620 hn         1 4VQ       0.280300
     37 HAE2         5.1480     2.1480     1.0560 hn         1 4VQ       0.280300
     38 HAJ          6.2630     0.0410     5.7180 h4         1 4VQ      -0.017900
     39 HAM          5.6320    -0.9100     7.1130 ha         1 4VQ       0.141500
     40 HAL          2.7270    -2.7230     4.5300 ha         1 4VQ       0.141500
     41 HAA1         0.4090    -5.1420     5.0220 h1         1 4VQ      -0.001133
     42 HAA2         0.7370    -3.4140     4.8410 h1         1 4VQ      -0.001133
     43 HAA3         1.9310    -4.6020     4.3000 h1         1 4VQ      -0.001133
     44 HAC1         4.5660    -5.4800     8.2220 h1         1 4VQ      -0.012967
     45 HAC2         3.0260    -6.2670     8.5920 h1         1 4VQ      -0.012967
     46 HAC3         4.0320    -5.6340     9.9020 h1         1 4VQ      -0.012967
     47 HAB1         6.4990    -1.4690    10.3380 h1         1 4VQ      -0.001133
     48 HAB2         6.8890    -1.6390     8.6210 h1         1 4VQ      -0.001133
     49 HAB3         5.7010    -0.4370     9.1430 h1         1 4VQ      -0.001133
@<TRIPOS>BOND
     1     1     2 1   
     2     1    30 1   
     3     1    31 1   
     4     1    32 1   
     5     2     3 ar  
     6     2     4 ar  
     7     3    10 ar  
     8     3    33 1   
     9     4     5 1   
    10     4     8 ar  
    11     5     6 1   
    12     5     7 1   
    13     8     9 ar  
    14     8    34 1   
    15     9    10 ar  
    16     9    35 1   
    17    10    11 1   
    18    11    12 ar  
    19    11    13 ar  
    20    12    17 ar  
    21    13    14 1   
    22    13    15 ar  
    23    14    36 1   
    24    14    37 1   
    25    15    16 ar  
    26    16    17 ar  
    27    16    38 1   
    28    17    18 1   
    29    18    19 ar  
    30    18    20 ar  
    31    19    27 ar  
    32    19    39 1   
    33    20    21 ar  
    34    20    40 1   
    35    21    22 1   
    36    21    24 ar  
    37    22    23 1   
    38    23    41 1   
    39    23    42 1   
    40    23    43 1   
    41    24    25 1   
    42    24    27 ar  
    43    25    26 1   
    44    26    44 1   
    45    26    45 1   
    46    26    46 1   
    47    27    28 1   
    48    28    29 1   
    49    29    47 1   
    50    29    48 1   
    51    29    49 1   
@<TRIPOS>SUBSTRUCTURE
     1 4VQ         1 TEMP              0 ****  ****    0 ROOT
