@<TRIPOS>MOLECULE
molecule
   38    40     1     0     0
SMALL
bcc


@<TRIPOS>ATOM
      1 C1           0.0000     0.0000     0.0000 c3         1 4VR      -0.093100
      2 C2           1.5300     0.0000     0.0000 c3         1 4VR      -0.083400
      3 C3           2.0390     0.0000     1.4430 c3         1 4VR      -0.049200
      4 C4           3.5460     0.0010     1.4430 cc         1 4VR       0.166800
      5 C5           4.2220     1.1670     1.5450 cd         1 4VR      -0.325200
      6 C6           5.6330     1.1560     1.5460 c          1 4VR       0.614500
      7 O7           6.2530     2.2020     1.6370 o          1 4VR      -0.580500
      8 N8           6.2900    -0.0130     1.4440 n          1 4VR      -0.043500
      9 N9           7.6510    -0.3450     1.4160 nd         1 4VR      -0.570800
     10 C10          7.7220    -1.6510     1.3020 cc         1 4VR       0.861900
     11 N11          8.8990    -2.3940     1.2370 nu         1 4VR      -0.903900
     12 C12         10.1970    -1.7150     1.2960 c3         1 4VR       0.296100
     13 C13         11.3020    -2.7360     1.2080 ca         1 4VR      -0.107300
     14 C14         11.8090    -3.1000    -0.0260 ca         1 4VR      -0.108500
     15 C15         12.8230    -4.0350    -0.1070 ca         1 4VR      -0.107000
     16 C16         13.3300    -4.6080     1.0450 ca         1 4VR      -0.010900
     17 Br1         14.7180    -5.8880     0.9350 br         1 4VR      -0.092100
     18 C18         12.8220    -4.2430     2.2800 ca         1 4VR      -0.107000
     19 C19         11.8120    -3.3040     2.3610 ca         1 4VR      -0.108500
     20 N20          6.4850    -2.1570     1.2570 nc         1 4VR      -0.822000
     21 C21          5.6040    -1.1830     1.3420 cd         1 4VR       0.703400
     22 N22          4.2280    -1.1760     1.3460 na         1 4VR      -0.704700
     23 H1          -0.3610     0.8990     0.4850 hc         1 4VR       0.039367
     24 H2          -0.3610    -0.8700     0.5360 hc         1 4VR       0.039367
     25 H3          -0.3610    -0.0290    -1.0210 hc         1 4VR       0.039367
     26 H4           1.8910     0.8850    -0.5110 hc         1 4VR       0.052200
     27 H5           1.8910    -0.8850    -0.5110 hc         1 4VR       0.052200
     28 H6           1.6780    -0.8850     1.9530 hc         1 4VR       0.066700
     29 H7           1.6770     0.8840     1.9540 hc         1 4VR       0.066700
     30 H8           3.6870     2.0870     1.7510 ha         1 4VR       0.183000
     31 H10          8.8590    -3.3920     1.1760 hn         1 4VR       0.461800
     32 H11         10.2790    -1.1740     2.2310 h1         1 4VR       0.058700
     33 H12         10.2790    -1.0210     0.4690 h1         1 4VR       0.058700
     34 H13         11.4120    -2.6520    -0.9290 ha         1 4VR       0.143500
     35 H14         13.2200    -4.3200    -1.0740 ha         1 4VR       0.147000
     36 H15         13.2200    -4.6890     3.1830 ha         1 4VR       0.147000
     37 H16         11.4140    -3.0180     3.3270 ha         1 4VR       0.143500
     38 H9           3.7260    -2.0390     1.2820 hn         1 4VR       0.475800
@<TRIPOS>BOND
     1    17    16 1   
     2    16    15 ar  
     3    16    18 ar  
     4    15    14 ar  
     5    18    19 ar  
     6    14    13 ar  
     7    20    21 2   
     8    20    10 1   
     9     2     1 1   
    10     2     3 1   
    11    19    13 ar  
    12    13    12 1   
    13    11    10 1   
    14    11    12 1   
    15    22    21 1   
    16    22     4 1   
    17    21     8 1   
    18    10     9 2   
    19     3     4 1   
    20     4     5 2   
    21     8     9 1   
    22     8     6 1   
    23     5     6 1   
    24     6     7 2   
    25     1    23 1   
    26     1    24 1   
    27     1    25 1   
    28     2    26 1   
    29     2    27 1   
    30     3    28 1   
    31     3    29 1   
    32     5    30 1   
    33    11    31 1   
    34    12    32 1   
    35    12    33 1   
    36    14    34 1   
    37    15    35 1   
    38    18    36 1   
    39    19    37 1   
    40    22    38 1   
@<TRIPOS>SUBSTRUCTURE
     1 4VR         1 TEMP              0 ****  ****    0 ROOT
