@<TRIPOS>MOLECULE
4VR
   38    40     1     0     0
SMALL
bcc


@<TRIPOS>ATOM
      1 C1           0.0000     0.0000     0.0000 c3         1 4VR       0.007900
      2 C2           1.5300     0.0000     0.0000 c3         1 4VR      -0.027400
      3 C3           2.0390     0.0000     1.4430 c3         1 4VR       0.024800
      4 C4           3.5460     0.0010     1.4430 cc         1 4VR      -0.025200
      5 C5           4.2220     1.1670     1.5450 cd         1 4VR      -0.308200
      6 C6           5.6330     1.1560     1.5460 c          1 4VR       0.513500
      7 O7           6.2530     2.2020     1.6370 o          1 4VR      -0.618500
      8 N8           6.2900    -0.0130     1.4440 n          1 4VR       0.397500
      9 N9           7.6510    -0.3450     1.4160 nc         1 4VR      -0.723800
     10 C10          7.7220    -1.6510     1.3020 cd         1 4VR       0.721900
     11 N11          8.8990    -2.3940     1.2370 nu         1 4VR      -0.483900
     12 C12         10.1970    -1.7150     1.2960 c3         1 4VR       0.230100
     13 C13         11.3020    -2.7360     1.2080 ca         1 4VR      -0.117300
     14 C14         11.8090    -3.1000    -0.0260 ca         1 4VR      -0.077500
     15 C15         12.8230    -4.0350    -0.1070 ca         1 4VR      -0.085000
     16 C16         13.3300    -4.6080     1.0450 ca         1 4VR       0.041100
     17 Br1         14.7180    -5.8880     0.9350 br         1 4VR      -0.127100
     18 C18         12.8220    -4.2430     2.2800 ca         1 4VR      -0.085000
     19 C19         11.8120    -3.3040     2.3610 ca         1 4VR      -0.077500
     20 N20          6.4850    -2.1570     1.2570 nd         1 4VR      -0.755000
     21 C21          5.6040    -1.1830     1.3420 cc         1 4VR       0.360400
     22 N22          4.2280    -1.1760     1.3460 na         1 4VR      -0.176700
     23 H1          -0.3610     0.8990     0.4850 hc         1 4VR       0.005033
     24 H2          -0.3610    -0.8700     0.5360 hc         1 4VR       0.005033
     25 H3          -0.3610    -0.0290    -1.0210 hc         1 4VR       0.005033
     26 H4           1.8910     0.8850    -0.5110 hc         1 4VR       0.019200
     27 H5           1.8910    -0.8850    -0.5110 hc         1 4VR       0.019200
     28 H6           1.6780    -0.8850     1.9530 hc         1 4VR       0.031200
     29 H7           1.6770     0.8840     1.9540 hc         1 4VR       0.031200
     30 H8           3.6870     2.0870     1.7510 ha         1 4VR       0.156000
     31 H10          8.8590    -3.3920     1.1760 hn         1 4VR       0.303800
     32 H11         10.2790    -1.1740     2.2310 h1         1 4VR       0.029200
     33 H12         10.2790    -1.0210     0.4690 h1         1 4VR       0.029200
     34 H13         11.4120    -2.6520    -0.9290 ha         1 4VR       0.113500
     35 H14         13.2200    -4.3200    -1.0740 ha         1 4VR       0.118000
     36 H15         13.2200    -4.6890     3.1830 ha         1 4VR       0.118000
     37 H16         11.4140    -3.0180     3.3270 ha         1 4VR       0.113500
     38 H9           3.7260    -2.0390     1.2820 hn         1 4VR       0.292800
@<TRIPOS>BOND
     1     1     2 1   
     2     1    23 1   
     3     1    24 1   
     4     1    25 1   
     5     2     3 1   
     6     2    26 1   
     7     2    27 1   
     8     3     4 1   
     9     3    28 1   
    10     3    29 1   
    11     4     5 2   
    12     4    22 1   
    13     5     6 1   
    14     5    30 1   
    15     6     7 2   
    16     6     8 1   
    17     8     9 1   
    18     8    21 1   
    19     9    10 2   
    20    10    11 1   
    21    10    20 1   
    22    11    12 1   
    23    11    31 1   
    24    12    13 1   
    25    12    32 1   
    26    12    33 1   
    27    13    14 ar  
    28    13    19 ar  
    29    14    15 ar  
    30    14    34 1   
    31    15    16 ar  
    32    15    35 1   
    33    16    17 1   
    34    16    18 ar  
    35    18    19 ar  
    36    18    36 1   
    37    19    37 1   
    38    20    21 2   
    39    21    22 1   
    40    22    38 1   
@<TRIPOS>SUBSTRUCTURE
     1 4VR         1 TEMP              0 ****  ****    0 ROOT
