@<TRIPOS>MOLECULE
4VS
   25    26     1     0     0
SMALL
bcc


@<TRIPOS>ATOM
      1 N3          -1.5360     0.0170    -2.0580 n1         1 4VS      -0.408800
      2 C9          -0.8520     0.0010    -1.1520 cg         1 4VS       0.279800
      3 C8           0.0000     0.0000     0.0000 cc         1 4VS      -0.254300
      4 C6           1.4120     0.0000     0.0000 cc         1 4VS       0.437600
      5 C7           2.2930     0.0010    -1.2230 c3         1 4VS      -0.048400
      6 N2           1.8250     0.0000     1.2370 nd         1 4VS      -0.617800
      7 C10         -0.4080     0.0050     1.3310 cd         1 4VS      -0.143700
      8 N1           0.7190     0.0000     2.0950 n          1 4VS       0.546300
      9 C5           0.6200     0.0040     3.4390 c          1 4VS       0.514500
     10 O            1.6260     0.0000     4.1260 o          1 4VS      -0.604500
     11 C4          -0.6520     0.0130     4.0470 cc         1 4VS      -0.271200
     12 N4          -1.6490     0.0110     1.9190 na         1 4VS      -0.098400
     13 C3          -1.7640     0.0180     3.2780 cd         1 4VS      -0.008200
     14 C2          -3.1270     0.0240     3.9210 c3         1 4VS      -0.312200
     15 C1          -3.6390     1.4620     4.0170 c3         1 4VS       0.044900
     16 H1           2.9830     0.7340    -0.8230 hc         1 4VS       0.036367
     17 H2           2.0060     0.3580    -2.2050 hc         1 4VS       0.036367
     18 H3           2.8640    -0.8700    -0.9260 hc         1 4VS       0.036367
     19 H4          -0.9460    -0.0530     5.0880 ha         1 4VS       0.172000
     20 H6          -3.9270    -0.4300     3.3490 hc         1 4VS       0.134200
     21 H7          -3.3520     1.0430     4.2140 hc         1 4VS       0.134200
     22 H8          -4.5060     1.8250     4.5550 hc         1 4VS       0.034033
     23 H9          -4.1200     1.6830     3.0720 hc         1 4VS       0.034033
     24 H10         -2.7510     2.0820     4.0590 hc         1 4VS       0.034033
     25 H5          -2.3970     0.1040     1.2610 hn         1 4VS       0.291800
@<TRIPOS>BOND
     1     1     2 3   
     2     2     3 1   
     3     3     4 1   
     4     3     7 2   
     5     4     5 1   
     6     4     6 2   
     7     5    16 1   
     8     5    17 1   
     9     5    18 1   
    10     6     8 1   
    11     7     8 1   
    12     7    12 1   
    13     8     9 1   
    14     9    10 2   
    15     9    11 1   
    16    11    13 2   
    17    11    19 1   
    18    12    13 1   
    19    12    25 1   
    20    13    14 1   
    21    14    15 1   
    22    14    20 1   
    23    14    21 1   
    24    15    22 1   
    25    15    23 1   
    26    15    24 1   
@<TRIPOS>SUBSTRUCTURE
     1 4VS         1 TEMP              0 ****  ****    0 ROOT
