@<TRIPOS>MOLECULE
4VT
   29    31     1     0     0
SMALL
bcc


@<TRIPOS>ATOM
      1 O1           0.0000     0.0000     0.0000 o          1 4VT      -0.606500
      2 C2           1.2180     0.0000     0.0000 c          1 4VT       0.508500
      3 C3           1.9270     0.0000     1.2190 cc         1 4VT      -0.297200
      4 C4           3.2790     0.0000     1.2080 cd         1 4VT       0.006800
      5 C5           4.0440    -0.0000     2.5070 c3         1 4VT      -0.106900
      6 C6           4.4050    -1.4160     2.8770 ca         1 4VT      -0.052300
      7 C7           3.5400    -2.1710     3.6480 ca         1 4VT      -0.107000
      8 C8           3.8720    -3.4700     3.9880 ca         1 4VT      -0.087000
      9 C9           5.0670    -4.0130     3.5570 ca         1 4VT      -0.088000
     10 C10          5.9320    -3.2580     2.7850 ca         1 4VT      -0.087000
     11 C11          5.5980    -1.9610     2.4420 ca         1 4VT      -0.107000
     12 N12          3.9490    -0.0000     0.0220 na         1 4VT      -0.073400
     13 C13          3.2550    -0.0000    -1.1630 cc         1 4VT      -0.138700
     14 C14          3.6670    -0.0010    -2.4930 cd         1 4VT      -0.251300
     15 C15          2.5000    -0.0020    -3.2880 cd         1 4VT       0.463200
     16 N16          1.4620    -0.0010    -2.4990 nc         1 4VT      -0.598800
     17 N17          1.8940    -0.0050    -1.1670 n          1 4VT       0.540300
     18 C18          5.0200    -0.0010    -2.9660 ch         1 4VT       0.272800
     19 N19          6.0910     0.0180    -3.3430 n1         1 4VT      -0.400800
     20 H1           1.3920     0.0950     2.1560 ha         1 4VT       0.160000
     21 H2           5.0420    -0.3860     2.3380 hc         1 4VT       0.095200
     22 H3           4.1080     1.0120     2.8880 hc         1 4VT       0.095200
     23 H4           2.6030    -1.7450     3.9860 ha         1 4VT       0.113000
     24 H5           3.1950    -4.0610     4.5920 ha         1 4VT       0.109000
     25 H6           5.3270    -5.0310     3.8230 ha         1 4VT       0.108000
     26 H7           6.8690    -3.6840     2.4470 ha         1 4VT       0.109000
     27 H8           6.2740    -1.3710     1.8350 ha         1 4VT       0.113000
     28 H9           4.9500    -0.0000     0.0130 hn         1 4VT       0.291800
     29 H10          2.4680    -0.0100    -4.3710 h4         1 4VT       0.016100
@<TRIPOS>BOND
     1     1     2 2   
     2     2     3 1   
     3     2    17 1   
     4     3     4 2   
     5     3    20 1   
     6     4     5 1   
     7     4    12 1   
     8     5     6 1   
     9     5    21 1   
    10     5    22 1   
    11     6     7 ar  
    12     6    11 ar  
    13     7     8 ar  
    14     7    23 1   
    15     8     9 ar  
    16     8    24 1   
    17     9    10 ar  
    18     9    25 1   
    19    10    11 ar  
    20    10    26 1   
    21    11    27 1   
    22    12    13 1   
    23    12    28 1   
    24    13    14 2   
    25    13    17 1   
    26    14    15 1   
    27    14    18 1   
    28    15    16 2   
    29    15    29 1   
    30    16    17 1   
    31    18    19 3   
@<TRIPOS>SUBSTRUCTURE
     1 4VT         1 TEMP              0 ****  ****    0 ROOT
