@<TRIPOS>MOLECULE
molecule
   29    31     1     0     0
SMALL
bcc


@<TRIPOS>ATOM
      1 O1           0.0000     0.0000     0.0000 o          1 4VT      -0.569500
      2 C2           1.2180     0.0000     0.0000 c          1 4VT       0.614500
      3 C3           1.9270     0.0000     1.2190 cc         1 4VT      -0.315200
      4 C4           3.2790     0.0000     1.2080 cd         1 4VT       0.187800
      5 C5           4.0440    -0.0000     2.5070 c3         1 4VT      -0.168900
      6 C6           4.4050    -1.4160     2.8770 ca         1 4VT      -0.055300
      7 C7           3.5400    -2.1710     3.6480 ca         1 4VT      -0.125000
      8 C8           3.8720    -3.4700     3.9880 ca         1 4VT      -0.119000
      9 C9           5.0670    -4.0130     3.5570 ca         1 4VT      -0.112000
     10 C10          5.9320    -3.2580     2.7850 ca         1 4VT      -0.119000
     11 C11          5.5980    -1.9610     2.4420 ca         1 4VT      -0.125000
     12 N12          3.9490    -0.0000     0.0220 na         1 4VT      -0.600400
     13 C13          3.2550    -0.0000    -1.1630 cd         1 4VT       0.198300
     14 C14          3.6670    -0.0010    -2.4930 cc         1 4VT      -0.290300
     15 C15          2.5000    -0.0020    -3.2880 cc         1 4VT       0.403200
     16 N16          1.4620    -0.0010    -2.4990 nd         1 4VT      -0.461800
     17 N17          1.8940    -0.0050    -1.1670 n          1 4VT       0.095300
     18 C18          5.0200    -0.0010    -2.9660 cg         1 4VT       0.273800
     19 N19          6.0910     0.0180    -3.3430 n1         1 4VT      -0.382800
     20 H1           1.3920     0.0950     2.1560 ha         1 4VT       0.188000
     21 H2           5.0420    -0.3860     2.3380 hc         1 4VT       0.126700
     22 H3           4.1080     1.0120     2.8880 hc         1 4VT       0.126700
     23 H4           2.6030    -1.7450     3.9860 ha         1 4VT       0.137500
     24 H5           3.1950    -4.0610     4.5920 ha         1 4VT       0.139000
     25 H6           5.3270    -5.0310     3.8230 ha         1 4VT       0.138000
     26 H7           6.8690    -3.6840     2.4470 ha         1 4VT       0.139000
     27 H8           6.2740    -1.3710     1.8350 ha         1 4VT       0.137500
     28 H9           4.9500    -0.0000     0.0130 hn         1 4VT       0.469800
     29 H10          2.4680    -0.0100    -4.3710 h4         1 4VT       0.067100
@<TRIPOS>BOND
     1    19    18 3
     2    18    14 1
     3     8     7 ar
     4     8     9 ar
     5     7     6 ar
     6    14    15 1
     7    14    13 2
     8     9    10 ar
     9    12    13 1
    10    12     4 1
    11    15    16 2
    12    13    17 1
    13     6     5 1
    14     6    11 ar
    15     5     4 1
    16    10    11 ar
    17     4     3 2
    18    16    17 1
    19    17     2 1
    20     3     2 1
    21     2     1 2
    22     3    20 1
    23     5    21 1
    24     5    22 1
    25     7    23 1
    26     8    24 1
    27     9    25 1
    28    10    26 1
    29    11    27 1
    30    12    28 1
    31    15    29 1
@<TRIPOS>SUBSTRUCTURE
     1 4VT         1 TEMP              0 ****  ****    0 ROOT
