@<TRIPOS>MOLECULE
4VU
   30    32     1     0     0
SMALL
bcc


@<TRIPOS>ATOM
      1 C1           0.0000     0.0000     0.0000 ca         1 4VU      -0.221300
      2 N1           0.2230    -0.6720     4.7100 n3         1 4VU      -0.531600
      3 C2           1.3810     0.0000     0.0000 ca         1 4VU       0.398200
      4 N2           2.0560     0.0000     1.1350 nb         1 4VU      -0.584000
      5 C4           1.4460     0.0020     2.3030 ca         1 4VU       0.410200
      6 C5           0.0650     0.0040     2.3820 ca         1 4VU      -0.206600
      7 C6          -0.6760     0.0080     1.2100 ca         1 4VU      -0.081000
      8 C7          -0.6230     0.0110     3.7210 c3         1 4VU       0.202800
      9 C9          -0.3960    -0.6440     6.0430 c3         1 4VU       0.150300
     10 C10         -1.9640    -0.7200     3.6110 c3         1 4VU      -0.071400
     11 C11         -1.7310    -1.3920     5.9980 c3         1 4VU      -0.055400
     12 C12         -1.9590    -1.9140     4.5740 c3         1 4VU      -0.037700
     13 C14         -0.7950    -2.8390     4.2000 c3         1 4VU      -0.055400
     14 H1          -0.5480     0.0020    -0.9340 ha         1 4VU       0.111000
     15 H3           1.9170    -0.0040    -0.9420 h4         1 4VU      -0.021900
     16 H4           2.0340     0.0010     3.2130 h4         1 4VU       0.003100
     17 H5          -1.7590     0.0090     1.2400 ha         1 4VU       0.118000
     18 H6          -0.7930     1.0340     4.0350 h1         1 4VU       0.044700
     19 H17         -0.5680     0.3840     6.3410 h1         1 4VU       0.026450
     20 H16          0.2620    -1.1220     6.7580 h1         1 4VU       0.026450
     21 H8          -2.7690    -0.0440     3.8740 hc         1 4VU       0.029200
     22 H7          -2.1040    -1.0720     2.5960 hc         1 4VU       0.029200
     23 H10         -2.5340    -0.7180     6.2710 hc         1 4VU       0.019700
     24 H11         -1.7050    -2.2250     6.6900 hc         1 4VU       0.019700
     25 H9          -2.8990    -2.4490     4.5150 hc         1 4VU       0.031700
     26 H12          1.1660    -2.5180     5.0230 h1         1 4VU       0.026450
     27 H13          1.0020    -2.0410     3.3270 h1         1 4VU       0.026450
     28 H15         -0.7640    -3.6790     4.8840 hc         1 4VU       0.019700
     29 H14         -0.9290    -3.2000     3.1870 hc         1 4VU       0.019700
     30 C13          0.5140    -2.0500     4.2950 c3         1 4VU       0.150300
@<TRIPOS>BOND
     1     1     3 ar  
     2     1     7 ar  
     3     1    14 1   
     4     2     8 1   
     5     2     9 1   
     6     2    30 1   
     7     3     4 ar  
     8     3    15 1   
     9     4     5 ar  
    10     5     6 ar  
    11     5    16 1   
    12     6     7 ar  
    13     6     8 1   
    14     7    17 1   
    15     8    10 1   
    16     8    18 1   
    17     9    11 1   
    18     9    19 1   
    19     9    20 1   
    20    10    12 1   
    21    10    21 1   
    22    10    22 1   
    23    11    12 1   
    24    11    23 1   
    25    11    24 1   
    26    12    13 1   
    27    12    25 1   
    28    13    28 1   
    29    13    29 1   
    30    13    30 1   
    31    26    30 1   
    32    27    30 1   
@<TRIPOS>SUBSTRUCTURE
     1 4VU         1 TEMP              0 ****  ****    0 ROOT
