@<TRIPOS>MOLECULE
4VV
   49    50     1     0     0
SMALL
bcc


@<TRIPOS>ATOM
      1 C1           0.0000     0.0000     0.0000 c3         1 4VV       0.231300
      2 C2           1.5300     0.0000     0.0000 c3         1 4VV      -0.064400
      3 C3           2.0390     0.0000     1.4420 c3         1 4VV      -0.025400
      4 N6          -0.9510    -3.4260    -2.6890 nu         1 4VV      -0.179500
      5 C7           6.1190    -0.0000     4.3280 c3         1 4VV       0.231300
      6 C9           8.0340    -2.3970     4.3300 c2         1 4VV      -0.050500
      7 C10          9.8690     0.5630     4.3290 c2         1 4VV       0.329700
      8 C11          8.4830     1.1700     4.3280 c3         1 4VV       0.102000
      9 C12         -0.7870     1.1700    -2.2280 c3         1 4VV       0.102000
     10 C14         -0.7740    -1.1170    -2.1900 ce         1 4VV       0.014600
     11 C4           3.5700    -0.0000     1.4430 c3         1 4VV      -0.028400
     12 C5           4.0800    -0.0000     2.8850 c3         1 4VV      -0.025400
     13 O2          -0.8080    -4.7760    -2.2830 oh         1 4VV      -0.436300
     14 C13         -0.6390    -2.3970    -1.8050 c2         1 4VV      -0.050500
     15 N5          -1.2050    -0.7180    -3.4110 ne         1 4VV      -0.445300
     16 C15         -1.2490     0.5630    -3.5350 c2         1 4VV       0.329700
     17 N1          -0.4880     0.0000    -1.3810 nh         1 4VV      -0.463400
     18 C6           5.6100    -0.0000     2.8850 c3         1 4VV      -0.064400
     19 N2           7.5850     0.0000     4.3280 nh         1 4VV      -0.463400
     20 N4           9.7380    -0.7170     4.3290 ne         1 4VV      -0.445300
     21 C8           8.4420    -1.1170     4.3290 ce         1 4VV       0.014600
     22 N3           8.9720    -3.4260     4.3310 nu         1 4VV      -0.179500
     23 O1           8.5420    -4.7760     4.3310 oh         1 4VV      -0.436300
     24 H1          -0.3610    -0.8850     0.5110 h1         1 4VV       0.015700
     25 H2          -0.3610     0.8840     0.5110 h1         1 4VV       0.015700
     26 H3           1.8910     0.8850    -0.5110 hc         1 4VV       0.023200
     27 H4           1.8910    -0.8850    -0.5110 hc         1 4VV       0.023200
     28 H5           1.6780    -0.8840     1.9530 hc         1 4VV       0.013700
     29 H6           1.6780     0.8840     1.9530 hc         1 4VV       0.013700
     30 H7          -1.2950    -3.2130    -3.6040 hn         1 4VV       0.294300
     31 H8           5.7580     0.8840     4.8390 h1         1 4VV       0.015700
     32 H9           5.7580    -0.8850     4.8390 h1         1 4VV       0.015700
     33 H10          6.9760    -2.6280     4.3310 h4         1 4VV       0.134000
     34 H11         10.6630     1.0270     4.9020 h4         1 4VV       0.006800
     35 H12          8.3310     1.7640     3.4350 h1         1 4VV       0.022700
     36 H13          8.3300     1.7650     5.2200 h1         1 4VV       0.022700
     37 H14         -1.6440     1.6660    -1.7900 h1         1 4VV       0.022700
     38 H15          0.1560     1.6650    -2.4250 h1         1 4VV       0.022700
     39 H16          3.9310    -0.8840     0.9320 hc         1 4VV       0.016700
     40 H17          3.9310     0.8840     0.9320 hc         1 4VV       0.016700
     41 H18          3.7190     0.8850     3.3960 hc         1 4VV       0.013700
     42 H19          3.7190    -0.8850     3.3960 hc         1 4VV       0.013700
     43 H20         -0.8170    -5.3350    -3.0420 ho         1 4VV       0.399500
     44 H21         -0.3240    -2.6280    -0.7950 h4         1 4VV       0.134000
     45 H22         -2.0540     1.0270    -4.0920 h4         1 4VV       0.006800
     46 H23          5.9710    -0.8850     2.3750 hc         1 4VV       0.023200
     47 H24          5.9710     0.8850     2.3750 hc         1 4VV       0.023200
     48 H25          9.9500    -3.2130     4.3610 hn         1 4VV       0.294300
     49 H26          9.2670    -5.3370     4.1080 ho         1 4VV       0.399500
@<TRIPOS>BOND
     1     1     2 1   
     2     1    17 1   
     3     1    24 1   
     4     1    25 1   
     5     2     3 1   
     6     2    26 1   
     7     2    27 1   
     8     3    11 1   
     9     3    28 1   
    10     3    29 1   
    11     4    13 1   
    12     4    14 1   
    13     4    30 1   
    14     5    18 1   
    15     5    19 1   
    16     5    31 1   
    17     5    32 1   
    18     6    21 2   
    19     6    22 1   
    20     6    33 1   
    21     7     8 1   
    22     7    20 2   
    23     7    34 1   
    24     8    19 1   
    25     8    35 1   
    26     8    36 1   
    27     9    16 1   
    28     9    17 1   
    29     9    37 1   
    30     9    38 1   
    31    10    14 2   
    32    10    15 1   
    33    10    17 1   
    34    11    12 1   
    35    11    39 1   
    36    11    40 1   
    37    12    18 1   
    38    12    41 1   
    39    12    42 1   
    40    13    43 1   
    41    14    44 1   
    42    15    16 2   
    43    16    45 1   
    44    18    46 1   
    45    18    47 1   
    46    19    21 1   
    47    20    21 1   
    48    22    23 1   
    49    22    48 1   
    50    23    49 1   
@<TRIPOS>SUBSTRUCTURE
     1 4VV         1 TEMP              0 ****  ****    0 ROOT
