@<TRIPOS>MOLECULE
4VW
   54    56     1     0     0
SMALL
bcc


@<TRIPOS>ATOM
      1 C1           0.0000     0.0000     0.0000 ca         1 4VW      -0.019500
      2 C2           0.0050     0.0000     2.4190 ca         1 4VW      -0.019500
      3 C3          -6.9380    -1.8400     2.2200 ca         1 4VW      -0.125000
      4 C4           1.3760     0.0000     0.0000 ca         1 4VW      -0.190000
      5 C5           1.3820     0.0000     2.4130 ca         1 4VW      -0.190000
      6 C6          -7.2110    -3.1600     1.8970 ca         1 4VW      -0.119000
      7 C7          -0.6970     0.0000     1.2110 ca         1 4VW      -0.196600
      8 C8          -6.5810    -2.4720     4.5120 ca         1 4VW      -0.052600
      9 C9          -6.6240    -1.4910     3.5150 ca         1 4VW      -0.076300
     10 C10          2.0730     0.0000     1.2050 ca         1 4VW       0.056600
     11 C11         -7.1730    -4.1420     2.8700 ca         1 4VW       0.023100
     12 C12         -6.8570    -3.8050     4.1850 ca         1 4VW       0.080100
     13 C13         -2.1720     0.0010     1.2140 c          1 4VW       0.594700
     14 C15         -6.8190    -6.0290     4.0100 c3         1 4VW       0.420200
     15 C18         -6.3280    -0.0550     3.8580 c3         1 4VW       0.040900
     16 C19         -4.5050     1.5960     4.2990 c3         1 4VW      -0.018400
     17 C20         -4.3090     0.0010     2.3870 c3         1 4VW       0.036000
     18 C21         -2.9910     1.7690     4.4350 c3         1 4VW      -0.101700
     19 C22         -4.8150     0.1780     3.8200 c3         1 4VW      -0.088700
     20 N23          3.4650    -0.0010     1.2020 nv         1 4VW      -0.469200
     21 N24         -2.8440     0.0010     2.3830 ns         1 4VW      -0.208900
     22 O25         -4.9750    -2.2100     6.3360 o          1 4VW      -0.881800
     23 O26         -2.7830     0.0010     0.1630 o          1 4VW      -0.676100
     24 O27         -7.1140    -1.7040     6.6490 o          1 4VW      -0.881800
     25 O28         -7.3980    -5.4870     2.8080 os         1 4VW      -0.336900
     26 O29         -6.8840    -4.9350     4.9440 os         1 4VW      -0.289900
     27 H1          -0.5420     0.0000    -0.9380 ha         1 4VW       0.117500
     28 H4           1.9180    -0.0000    -0.9380 ha         1 4VW       0.106000
     29 H2          -0.5330     0.0000     3.3590 ha         1 4VW       0.117500
     30 H5           1.9270     0.0000     3.3490 ha         1 4VW       0.106000
     31 H3          -6.9700    -1.0790     1.4500 ha         1 4VW       0.101000
     32 H6          -7.4570    -3.4240     0.8750 ha         1 4VW       0.094000
     33 H181        -6.7020     0.1640     4.8510 hc         1 4VW       0.028200
     34 H182        -6.8110     0.5950     3.1380 hc         1 4VW       0.028200
     35 H231         3.9660    -0.4220     1.9590 hn         1 4VW       0.263800
     36 H232         3.9630     0.4260     0.4470 hn         1 4VW       0.263800
     37 H24         -2.3420    -0.0550     3.2470 hn         1 4VW       0.211500
     38 H151        -7.4220    -6.8550     4.3680 h2         1 4VW       0.000700
     39 H152        -5.7850    -6.2990     3.8320 h2         1 4VW       0.000700
     40 H161        -3.0280     3.8910     4.0940 hc         1 4VW       0.005867
     41 H162        -3.1740     3.4250     5.7940 hc         1 4VW       0.005867
     42 H163        -1.6070     3.3210     4.9800 hc         1 4VW       0.005867
     43 H21         -2.5160     1.5600     3.4840 hc         1 4VW       0.040700
     44 H171        -3.0360     0.9080     6.4040 hc         1 4VW       0.005867
     45 H172        -2.5480    -0.2170     5.1290 hc         1 4VW       0.005867
     46 H173        -1.4190     1.0210     5.6960 hc         1 4VW       0.005867
     47 H22         -4.3240    -0.5380     4.4670 hc         1 4VW       0.095700
     48 H191        -4.9750     1.7630     5.2610 hc         1 4VW       0.019200
     49 H192        -4.8870     2.3120     3.5810 hc         1 4VW       0.019200
     50 H201        -4.6710    -0.9390     1.9890 h1         1 4VW       0.032200
     51 H202        -4.6710     0.8170     1.7720 h1         1 4VW       0.032200
     52 C14         -6.2450    -2.1040     5.8990 c          1 4VW       0.981200
     53 C16         -2.6770     3.2060     4.8570 c3         1 4VW      -0.001100
     54 C17         -2.4590     0.7990     5.4940 c3         1 4VW      -0.001100
@<TRIPOS>BOND
     1     1     4 ar  
     2     1     7 ar  
     3     1    27 1   
     4     2     5 ar  
     5     2     7 ar  
     6     2    29 1   
     7     3     6 ar  
     8     3     9 ar  
     9     3    31 1   
    10     4    10 ar  
    11     4    28 1   
    12     5    10 ar  
    13     5    30 1   
    14     6    11 ar  
    15     6    32 1   
    16     7    13 1   
    17     8     9 ar  
    18     8    12 ar  
    19     8    52 1   
    20     9    15 1   
    21    10    20 1   
    22    11    12 ar  
    23    11    25 1   
    24    12    26 1   
    25    13    21 1   
    26    13    23 2   
    27    14    25 1   
    28    14    26 1   
    29    14    38 1   
    30    14    39 1   
    31    15    19 1   
    32    15    33 1   
    33    15    34 1   
    34    16    18 1   
    35    16    19 1   
    36    16    48 1   
    37    16    49 1   
    38    17    19 1   
    39    17    21 1   
    40    17    50 1   
    41    17    51 1   
    42    18    43 1   
    43    18    53 1   
    44    18    54 1   
    45    19    47 1   
    46    20    35 1   
    47    20    36 1   
    48    21    37 1   
    49    22    52 1   
    50    24    52 1   
    51    40    53 1   
    52    41    53 1   
    53    42    53 1   
    54    44    54 1   
    55    45    54 1   
    56    46    54 1   
@<TRIPOS>SUBSTRUCTURE
     1 4VW         1 TEMP              0 ****  ****    0 ROOT
