@<TRIPOS>MOLECULE
molecule
   23    23     1     0     0
SMALL
bcc


@<TRIPOS>ATOM
      1 C1           0.0000     0.0000     0.0000 c3         1 4VY       0.231100
      2 N2           1.4640     0.0000     0.0000 nh         1 4VY      -0.824300
      3 C3           2.1980     0.0000     1.2680 c3         1 4VY       0.242800
      4 C4           2.4530    -1.4420     1.7110 c3         1 4VY       0.118400
      5 O5           3.3210    -2.0810     0.7730 oh         1 4VY      -0.584800
      6 C6           2.1600    -0.0000    -1.2050 ca         1 4VY       0.721200
      7 C7           1.4610     0.1040    -2.4030 ca         1 4VY      -0.321300
      8 C8           2.1650     0.1030    -3.5940 ca         1 4VY      -0.031000
      9 C9           3.5500    -0.0040    -3.5460 ca         1 4VY      -0.210200
     10 C10          4.1780    -0.1050    -2.3200 ca         1 4VY       0.496200
     11 N11          3.4800    -0.0960    -1.2000 nb         1 4VY      -0.730000
     12 Br           4.5630    -0.0130    -5.1420 br         1 4VY      -0.102100
     13 H11C        -0.3610    -0.8690    -0.5370 h1         1 4VY       0.038033
     14 H12C        -0.3610    -0.0300     1.0210 h1         1 4VY       0.038033
     15 H13C        -0.3610     0.8990    -0.4840 h1         1 4VY       0.038033
     16 H31C         3.1440     0.5100     1.1380 h1         1 4VY       0.064700
     17 H32C         1.6130     0.5110     2.0230 h1         1 4VY       0.064700
     18 H41C         1.5120    -1.9770     1.7560 h1         1 4VY       0.020200
     19 H42C         2.9160    -1.4420     2.6900 h1         1 4VY       0.020200
     20 H5           3.6570    -2.8780     1.1480 ho         1 4VY       0.394000
     21 H7           0.3810     0.1860    -2.4040 ha         1 4VY       0.140000
     22 H8           1.6490     0.1830    -4.5430 ha         1 4VY       0.146000
     23 H10          5.2570    -0.1860    -2.2760 h4         1 4VY       0.032100
@<TRIPOS>BOND
     1     1     2 1   
     2     2     3 1   
     3     2     6 1   
     4     3     4 1   
     5     4     5 1   
     6     6     7 ar  
     7     6    11 ar  
     8     7     8 ar  
     9     8     9 ar  
    10     9    10 ar  
    11     9    12 1   
    12    10    11 ar  
    13     1    13 1   
    14     1    14 1   
    15     1    15 1   
    16     3    16 1   
    17     3    17 1   
    18     4    18 1   
    19     4    19 1   
    20     5    20 1   
    21     7    21 1   
    22     8    22 1   
    23    10    23 1   
@<TRIPOS>SUBSTRUCTURE
     1 4VY         1 TEMP              0 ****  ****    0 ROOT
