@<TRIPOS>MOLECULE
molecule
   48    51     1     0     0
SMALL
bcc


@<TRIPOS>ATOM
      1 C1           0.0000     0.0000     0.0000 ca         1 4W0      -0.044000
      2 C2           1.3790     0.0000     0.0000 ca         1 4W0      -0.217000
      3 C3           2.0720     0.0000     1.2060 ca         1 4W0       0.209600
      4 C4           1.3550     0.0000     2.4160 ca         1 4W0      -0.249600
      5 C5          -0.0420    -0.0000     2.4010 ca         1 4W0       0.228900
      6 C6          -0.7100     0.0050     1.1910 ca         1 4W0      -0.223000
      7 O1          11.6490     3.4320    -1.8510 os         1 4W0      -0.339900
      8 C7           2.1060    -0.0010     3.6830 c          1 4W0       0.589900
      9 C8           3.5140     0.0000     3.6180 cc         1 4W0      -0.265400
     10 C9           4.1410    -0.0000     2.4070 cd         1 4W0       0.207800
     11 C10          5.6180    -0.0000     2.3680 ca         1 4W0      -0.085800
     12 C11          6.2990    -0.9220     1.5690 ca         1 4W0      -0.100000
     13 C12          7.6770    -0.9170     1.5360 ca         1 4W0      -0.125500
     14 C13          8.3870    -0.0010     2.2940 ca         1 4W0      -0.063300
     15 C14          7.7190     0.9150     3.0880 ca         1 4W0      -0.125500
     16 C15          6.3410     0.9250     3.1250 ca         1 4W0      -0.100000
     17 O2           1.5260     0.0000     4.7570 o          1 4W0      -0.550100
     18 N            3.4500    -0.0000     1.2320 na         1 4W0      -0.598400
     19 C16          9.8930    -0.0020     2.2540 c3         1 4W0       0.010200
     20 C17         10.3680     0.9160     1.1570 ca         1 4W0      -0.102300
     21 C18         10.5580     0.4240    -0.1210 ca         1 4W0      -0.087500
     22 C19         10.9870     1.2640    -1.1300 ca         1 4W0      -0.165000
     23 C20         11.2270     2.6040    -0.8610 ca         1 4W0       0.123100
     24 C21         11.0340     3.0960     0.4230 ca         1 4W0      -0.165000
     25 C22         10.6050     2.2520     1.4280 ca         1 4W0      -0.087500
     26 C23          4.3270     0.0010     4.8870 c3         1 4W0      -0.025900
     27 F1          -0.7360    -0.0010     3.5600 f          1 4W0      -0.106900
     28 C24         11.8760     4.7990    -1.5000 c3         1 4W0       0.795700
     29 F2          12.8590     4.8690    -0.5060 f          1 4W0      -0.204300
     30 F3          12.3050     5.5050    -2.6300 f          1 4W0      -0.204300
     31 F4          10.6880     5.3610    -1.0220 f          1 4W0      -0.204300
     32 H1          -0.5350     0.0040    -0.9420 ha         1 4W0       0.139000
     33 H2           1.9210    -0.0040    -0.9380 ha         1 4W0       0.135000
     34 H3          -1.7930     0.0050     1.1730 ha         1 4W0       0.150000
     35 H5           5.7440    -1.6390     0.9760 ha         1 4W0       0.141500
     36 H6           8.2050    -1.6320     0.9170 ha         1 4W0       0.136000
     37 H7           8.2810     1.6310     3.6760 ha         1 4W0       0.136000
     38 H8           5.8200     1.6420     3.7470 ha         1 4W0       0.141500
     39 H9          10.2490    -1.0070     2.0630 hc         1 4W0       0.060200
     40 H10         10.2790     0.3430     3.2060 hc         1 4W0       0.060200
     41 H11         10.3710    -0.6220    -0.3320 ha         1 4W0       0.138500
     42 H12         11.1360     0.8770    -2.1310 ha         1 4W0       0.150000
     43 H13         11.2200     4.1420     0.6360 ha         1 4W0       0.150000
     44 H14         10.4550     2.6350     2.4300 ha         1 4W0       0.138500
     45 H15          4.5910     1.0200     5.1460 hc         1 4W0       0.047367
     46 H16          5.2300    -0.5790     4.7380 hc         1 4W0       0.047367
     47 H17          3.7460    -0.4360     5.6890 hc         1 4W0       0.047367
     48 H4           3.9550    -0.0010     0.3680 hn         1 4W0       0.454800
@<TRIPOS>BOND
     1    31    28 1
     2    30    28 1
     3    28    29 1
     4    28     7 1
     5     7    23 1
     6    22    23 ar
     7    22    21 ar
     8    23    24 ar
     9    21    20 ar
    10    24    25 ar
    11    20    25 ar
    12    20    19 1
    13    15    16 ar
    14    15    14 ar
    15    16    11 ar
    16    26     9 1
    17    19    14 1
    18    14    13 ar
    19     9    10 2
    20     9     8 1
    21    11    10 1
    22    11    12 ar
    23    17     8 2
    24    10    18 1
    25     8     4 1
    26    13    12 ar
    27    18     3 1
    28     4     3 ar
    29     4     5 ar
    30    27     5 1
    31     3     2 ar
    32     5     6 ar
    33     2     1 ar
    34     6     1 ar
    35     1    32 1
    36     2    33 1
    37     6    34 1
    38    12    35 1
    39    13    36 1
    40    15    37 1
    41    16    38 1
    42    19    39 1
    43    19    40 1
    44    21    41 1
    45    22    42 1
    46    24    43 1
    47    25    44 1
    48    26    45 1
    49    26    46 1
    50    26    47 1
    51    18    48 1
@<TRIPOS>SUBSTRUCTURE
     1 4W0         1 TEMP              0 ****  ****    0 ROOT
