@<TRIPOS>MOLECULE
4W0
   48    51     1     0     0
SMALL
bcc


@<TRIPOS>ATOM
      1 C1           0.0000     0.0000     0.0000 ca         1 4W0      -0.011000
      2 C2           1.3790     0.0000     0.0000 ca         1 4W0      -0.190000
      3 C3           2.0720     0.0000     1.2060 ca         1 4W0       0.036600
      4 C4           1.3550     0.0000     2.4160 ca         1 4W0      -0.241600
      5 C5          -0.0420    -0.0000     2.4010 ca         1 4W0       0.216900
      6 C6          -0.7100     0.0050     1.1910 ca         1 4W0      -0.192000
      7 O1          11.6490     3.4320    -1.8510 os         1 4W0      -0.313900
      8 C7           2.1060    -0.0010     3.6830 c          1 4W0       0.641900
      9 C8           3.5140     0.0000     3.6180 cc         1 4W0      -0.272400
     10 C9           4.1410    -0.0000     2.4070 cd         1 4W0       0.035800
     11 C10          5.6180    -0.0000     2.3680 ca         1 4W0      -0.077800
     12 C11          6.2990    -0.9220     1.5690 ca         1 4W0      -0.080000
     13 C12          7.6770    -0.9170     1.5360 ca         1 4W0      -0.096500
     14 C13          8.3870    -0.0010     2.2940 ca         1 4W0      -0.073300
     15 C14          7.7190     0.9150     3.0880 ca         1 4W0      -0.096500
     16 C15          6.3410     0.9250     3.1250 ca         1 4W0      -0.080000
     17 O2           1.5260     0.0000     4.7570 o          1 4W0      -0.585100
     18 N            3.4500    -0.0000     1.2320 na         1 4W0      -0.086400
     19 C16          9.8930    -0.0020     2.2540 c3         1 4W0       0.090200
     20 C17         10.3680     0.9160     1.1570 ca         1 4W0      -0.113300
     21 C18         10.5580     0.4240    -0.1210 ca         1 4W0      -0.053000
     22 C19         10.9870     1.2640    -1.1300 ca         1 4W0      -0.154500
     23 C20         11.2270     2.6040    -0.8610 ca         1 4W0       0.135100
     24 C21         11.0340     3.0960     0.4230 ca         1 4W0      -0.154500
     25 C22         10.6050     2.2520     1.4280 ca         1 4W0      -0.053000
     26 C23          4.3270     0.0010     4.8870 c3         1 4W0       0.072100
     27 F1          -0.7360    -0.0010     3.5600 f          1 4W0      -0.108900
     28 C24         11.8760     4.7990    -1.5000 c3         1 4W0       0.755700
     29 F2          12.8590     4.8690    -0.5060 f          1 4W0      -0.196633
     30 F3          12.3050     5.5050    -2.6300 f          1 4W0      -0.196633
     31 F4          10.6880     5.3610    -1.0220 f          1 4W0      -0.196633
     32 H1          -0.5350     0.0040    -0.9420 ha         1 4W0       0.104000
     33 H2           1.9210    -0.0040    -0.9380 ha         1 4W0       0.113000
     34 H3          -1.7930     0.0050     1.1730 ha         1 4W0       0.125000
     35 H5           5.7440    -1.6390     0.9760 ha         1 4W0       0.115000
     36 H6           8.2050    -1.6320     0.9170 ha         1 4W0       0.110000
     37 H7           8.2810     1.6310     3.6760 ha         1 4W0       0.110000
     38 H8           5.8200     1.6420     3.7470 ha         1 4W0       0.115000
     39 H9          10.2490    -1.0070     2.0630 hc         1 4W0       0.025200
     40 H10         10.2790     0.3430     3.2060 hc         1 4W0       0.025200
     41 H11         10.3710    -0.6220    -0.3320 ha         1 4W0       0.109500
     42 H12         11.1360     0.8770    -2.1310 ha         1 4W0       0.126000
     43 H13         11.2200     4.1420     0.6360 ha         1 4W0       0.126000
     44 H14         10.4550     2.6350     2.4300 ha         1 4W0       0.109500
     45 H15          4.5910     1.0200     5.1460 hc         1 4W0       0.014700
     46 H16          5.2300    -0.5790     4.7380 hc         1 4W0       0.014700
     47 H17          3.7460    -0.4360     5.6890 hc         1 4W0       0.014700
     48 H4           3.9550    -0.0010     0.3680 hn         1 4W0       0.279800
@<TRIPOS>BOND
     1     1     2 ar  
     2     1     6 ar  
     3     1    32 1   
     4     2     3 ar  
     5     2    33 1   
     6     3     4 ar  
     7     3    18 1   
     8     4     5 ar  
     9     4     8 1   
    10     5     6 ar  
    11     5    27 1   
    12     6    34 1   
    13     7    23 1   
    14     7    28 1   
    15     8     9 1   
    16     8    17 2   
    17     9    10 2   
    18     9    26 1   
    19    10    11 1   
    20    10    18 1   
    21    11    12 ar  
    22    11    16 ar  
    23    12    13 ar  
    24    12    35 1   
    25    13    14 ar  
    26    13    36 1   
    27    14    15 ar  
    28    14    19 1   
    29    15    16 ar  
    30    15    37 1   
    31    16    38 1   
    32    18    48 1   
    33    19    20 1   
    34    19    39 1   
    35    19    40 1   
    36    20    21 ar  
    37    20    25 ar  
    38    21    22 ar  
    39    21    41 1   
    40    22    23 ar  
    41    22    42 1   
    42    23    24 ar  
    43    24    25 ar  
    44    24    43 1   
    45    25    44 1   
    46    26    45 1   
    47    26    46 1   
    48    26    47 1   
    49    28    29 1   
    50    28    30 1   
    51    28    31 1   
@<TRIPOS>SUBSTRUCTURE
     1 4W0         1 TEMP              0 ****  ****    0 ROOT
