@<TRIPOS>MOLECULE
molecule
   19    20     1     0     0
SMALL
bcc


@<TRIPOS>ATOM
      1 CAD          0.0000     0.0000     0.0000 ca         1 4W1      -0.093000
      2 CAB          1.3750     0.0000     0.0000 ca         1 4W1      -0.121000
      3 CAC          2.0720     0.0000     1.2010 ca         1 4W1      -0.129000
      4 CAE          1.4070    -0.0010     2.3880 ca         1 4W1      -0.096000
      5 CAK         -0.0040     0.0000     2.4170 ca         1 4W1      -0.070800
      6 CAJ         -0.7030     0.0010     1.2080 ca         1 4W1      -0.010100
      7 SAH         -2.4340     0.0020     1.5250 ss         1 4W1      -0.113500
      8 CAF         -2.1850     0.0020     3.2590 cc         1 4W1      -0.047400
      9 CAI         -0.9010    -0.0010     3.5620 cd         1 4W1      -0.099400
     10 CAG         -0.4030    -0.0030     4.9840 c3         1 4W1       0.202600
     11 OAA         -1.5170     0.0010     5.8790 oh         1 4W1      -0.612800
     12 H1          -0.5400    -0.0000    -0.9390 ha         1 4W1       0.135000
     13 H2           1.9150     0.0010    -0.9390 ha         1 4W1       0.134000
     14 H3           3.1560     0.0000     1.1920 ha         1 4W1       0.131000
     15 H4           1.9650    -0.0010     3.3170 ha         1 4W1       0.128000
     16 H5          -2.9840     0.0050     3.9900 h4         1 4W1       0.190000
     17 H6           0.1960    -0.8890     5.1550 h1         1 4W1       0.032700
     18 H7           0.2020     0.8800     5.1560 h1         1 4W1       0.032700
     19 H8          -1.2050    -0.0010     6.7690 ho         1 4W1       0.407000
@<TRIPOS>BOND
     1     7     8 1   
     2     7     6 1   
     3     1     6 ar  
     4     1     2 ar  
     5     8     9 2   
     6     6     5 ar  
     7     2     3 ar  
     8     9     5 1   
     9     9    10 1   
    10     5     4 ar  
    11     3     4 ar  
    12    10    11 1   
    13     1    12 1   
    14     2    13 1   
    15     3    14 1   
    16     4    15 1   
    17     8    16 1   
    18    10    17 1   
    19    10    18 1   
    20    11    19 1   
@<TRIPOS>SUBSTRUCTURE
     1 4W1         1 TEMP              0 ****  ****    0 ROOT
