@<TRIPOS>MOLECULE
4W4
   43    46     1     0     0
SMALL
bcc


@<TRIPOS>ATOM
      1 C1           0.0000     0.0000     0.0000 c3         1 4W4      -0.110000
      2 C2           1.5300     0.0000     0.0000 c3         1 4W4      -0.104000
      3 C3           2.0400     0.0000     1.4420 c3         1 4W4      -0.112000
      4 C4           3.5710    -0.0000     1.4420 c3         1 4W4      -0.057000
      5 C5           4.0730     0.0010     2.8630 c2         1 4W4      -0.097000
      6 C6           4.3940    -1.1650     3.4670 c2         1 4W4      -0.284000
      7 C7           4.8640    -1.1560     4.7970 c2         1 4W4       0.253000
      8 O8           5.1570    -2.2030     5.3490 o          1 4W4      -0.336000
      9 N9           4.9890     0.0140     5.4570 n          1 4W4       0.324000
     10 N10          5.4190     0.3130     6.7540 n2         1 4W4      -0.238000
     11 C11          5.3650     1.6090     6.9390 c2         1 4W4       0.055000
     12 N12          5.7160     2.2820     8.1070 nu         1 4W4      -0.061000
     13 C13          6.1960     1.5300     9.2700 c3         1 4W4      -0.298000
     14 C14          6.5060     2.4860    10.3930 c3         1 4W4      -0.033000
     15 C15          5.6470     2.5860    11.4710 c2         1 4W4      -0.081000
     16 C16          5.9300     3.4610    12.5020 c2         1 4W4      -0.100000
     17 C17          7.0730     4.2390    12.4570 c2         1 4W4      -0.088000
     18 Cl1          7.4240     5.3440    13.7490 cl         1 4W4       0.074000
     19 C19          7.9340     4.1410    11.3770 c2         1 4W4      -0.125000
     20 C20          7.6530     3.2600    10.3480 c2         1 4W4       0.084000
     21 F21          8.4930     3.1620     9.2940 f          1 4W4      -0.084000
     22 C22          4.8880     2.2090     5.7460 c2         1 4W4      -0.158000
     23 C23          4.6780     3.6070     5.5210 c1         1 4W4      -0.049000
     24 N24          4.5300     4.7180     5.3360 n1         1 4W4      -0.076000
     25 C25          4.6610     1.1790     4.8360 c2         1 4W4      -0.197000
     26 N26          4.2090     1.1760     3.5390 na         1 4W4       0.300000
     27 H1          -0.3610    -0.0420    -1.0200 hc         1 4W4       0.043333
     28 H2          -0.3610    -0.8630     0.5460 hc         1 4W4       0.043333
     29 H3          -0.3610     0.9050     0.4740 hc         1 4W4       0.043333
     30 H4           1.8910     0.8850    -0.5110 hc         1 4W4       0.053500
     31 H5           1.8910    -0.8850    -0.5110 hc         1 4W4       0.053500
     32 H6           1.5590     0.7970     1.9950 hc         1 4W4       0.064000
     33 H7           1.8100    -0.9510     1.9070 hc         1 4W4       0.064000
     34 H8           3.9320     1.0210     1.4430 hc         1 4W4       0.068000
     35 H9           3.9320    -0.5100     0.5570 hc         1 4W4       0.068000
     36 H10          4.3770    -2.0900     2.9040 ha         1 4W4       0.158000
     37 H12          6.6800     2.3720     8.3620 hn         1 4W4       0.177000
     38 H13          6.1800     0.4700     9.0460 h1         1 4W4       0.182000
     39 H14          5.5540     1.7300    10.1190 DU         1 4W4       0.108000
     40 H15          4.7510     1.9780    11.5080 ha         1 4W4       0.126000
     41 H16          5.2560     3.5390    13.3470 ha         1 4W4       0.122000
     42 H17          8.8290     4.7500    11.3410 ha         1 4W4       0.133000
     43 H11          3.9830     2.0410     3.0880 hn         1 4W4       0.093000
@<TRIPOS>BOND
     1     1     2 1   
     2     1    27 1   
     3     1    28 1   
     4     1    29 1   
     5     2     3 1   
     6     2    30 1   
     7     2    31 1   
     8     3     4 1   
     9     3    32 1   
    10     3    33 1   
    11     4     5 1   
    12     4    34 1   
    13     4    35 1   
    14     5     6 1   
    15     5    26 1   
    16     6     7 1   
    17     6    36 1   
    18     7     8 1   
    19     7     9 1   
    20     9    10 1   
    21     9    25 1   
    22    10    11 1   
    23    11    12 1   
    24    11    22 1   
    25    12    13 1   
    26    12    37 1   
    27    13    14 1   
    28    13    38 1   
    29    13    39 1   
    30    14    15 1   
    31    14    20 1   
    32    14    39 1   
    33    15    16 1   
    34    15    40 1   
    35    16    17 1   
    36    16    41 1   
    37    17    18 1   
    38    17    19 1   
    39    19    20 1   
    40    19    42 1   
    41    20    21 1   
    42    22    23 1   
    43    22    25 1   
    44    23    24 1   
    45    25    26 1   
    46    26    43 1   
@<TRIPOS>SUBSTRUCTURE
     1 4W4         1 TEMP              0 ****  ****    0 ROOT
