@<TRIPOS>MOLECULE
molecule
   43    45     1     0     0
SMALL
bcc


@<TRIPOS>ATOM
      1 C1           0.0000     0.0000     0.0000 c3         1 4W4      -0.091100
      2 C2           1.5300     0.0000     0.0000 c3         1 4W4      -0.084400
      3 C3           2.0400     0.0000     1.4420 c3         1 4W4      -0.083400
      4 C4           3.5710    -0.0000     1.4420 c3         1 4W4      -0.056200
      5 C5           4.0730     0.0010     2.8630 cc         1 4W4       0.167800
      6 C6           4.3940    -1.1650     3.4670 cd         1 4W4      -0.320200
      7 C7           4.8640    -1.1560     4.7970 c          1 4W4       0.612500
      8 O8           5.1570    -2.2030     5.3490 o          1 4W4      -0.573500
      9 N9           4.9890     0.0140     5.4570 n          1 4W4       0.106300
     10 N10          5.4190     0.3130     6.7540 nd         1 4W4      -0.531800
     11 C11          5.3650     1.6090     6.9390 cc         1 4W4       0.606200
     12 N12          5.7160     2.2820     8.1070 nu         1 4W4      -0.772900
     13 C13          6.1960     1.5300     9.2700 c3         1 4W4      -0.055900
     14 C14          6.5060     2.4860    10.3930 ca         1 4W4      -0.060300
     15 C15          5.6470     2.5860    11.4710 ca         1 4W4      -0.106000
     16 C16          5.9300     3.4610    12.5020 ca         1 4W4      -0.131000
     17 C17          7.0730     4.2390    12.4570 ca         1 4W4       0.062400
     18 Cl1          7.4240     5.3440    13.7490 cl         1 4W4      -0.086400
     19 C19          7.9340     4.1410    11.3770 ca         1 4W4      -0.161000
     20 C20          7.6530     3.2600    10.3480 ca         1 4W4       0.156900
     21 F21          8.4930     3.1620     9.2940 f          1 4W4      -0.124900
     22 C22          4.8880     2.2090     5.7460 cc         1 4W4      -0.260300
     23 C23          4.6780     3.6070     5.5210 cg         1 4W4       0.282800
     24 N24          4.5300     4.7180     5.3360 n1         1 4W4      -0.382800
     25 C25          4.6610     1.1790     4.8360 cd         1 4W4       0.199300
     26 N26          4.2090     1.1760     3.5390 na         1 4W4      -0.599400
     27 H1          -0.3610    -0.0420    -1.0200 hc         1 4W4       0.037700
     28 H2          -0.3610    -0.8630     0.5460 hc         1 4W4       0.037700
     29 H3          -0.3610     0.9050     0.4740 hc         1 4W4       0.037700
     30 H4           1.8910     0.8850    -0.5110 hc         1 4W4       0.043200
     31 H5           1.8910    -0.8850    -0.5110 hc         1 4W4       0.043200
     32 H6           1.5590     0.7970     1.9950 hc         1 4W4       0.054700
     33 H7           1.8100    -0.9510     1.9070 hc         1 4W4       0.054700
     34 H8           3.9320     1.0210     1.4430 hc         1 4W4       0.066700
     35 H9           3.9320    -0.5100     0.5570 hc         1 4W4       0.066700
     36 H10          4.3770    -2.0900     2.9040 ha         1 4W4       0.187000
     37 H12          6.6800     2.3720     8.3620 hn         1 4W4       0.448800
     38 H13          6.1800     0.4700     9.0460 h1         1 4W4       0.128700
     39 H14          5.5540     1.7300    10.1190 h1         1 4W4       0.128700
     40 H15          4.7510     1.9780    11.5080 ha         1 4W4       0.157000
     41 H16          5.2560     3.5390    13.3470 ha         1 4W4       0.154000
     42 H17          8.8290     4.7500    11.3410 ha         1 4W4       0.164000
     43 H11          3.9830     2.0410     3.0880 hn         1 4W4       0.475800
@<TRIPOS>BOND
     1    18    17 1   
     2    24    23 3   
     3    17    19 ar  
     4    17    16 ar  
     5    23    22 1   
     6    19    20 ar  
     7    16    15 ar  
     8    20    21 1   
     9    20    14 ar  
    10     1     2 1   
    11    22    25 2   
    12    22    11 1   
    13    15    14 ar  
    14     3     2 1   
    15     3     4 1   
    16    14    13 1   
    17    26    25 1   
    18    26     5 1   
    19    12    11 1   
    20    12    13 1   
    21    25     9 1   
    22    11    10 2   
    23     4     5 1   
    24     5     6 2   
    25     9    10 1   
    26     9     7 1   
    27     6     7 1   
    28     7     8 2   
    29     1    27 1   
    30     1    28 1   
    31     1    29 1   
    32     2    30 1   
    33     2    31 1   
    34     3    32 1   
    35     3    33 1   
    36     4    34 1   
    37     4    35 1   
    38     6    36 1   
    39    12    37 1   
    40    13    38 1   
    41    13    39 1   
    42    15    40 1   
    43    16    41 1   
    44    19    42 1   
    45    26    43 1   
@<TRIPOS>SUBSTRUCTURE
     1 4W4         1 TEMP              0 ****  ****    0 ROOT
