@<TRIPOS>MOLECULE
molecule
   24    25     1     0     0
SMALL
bcc


@<TRIPOS>ATOM
      1 C4           0.0000     0.0000     0.0000 ca         1 4W5       0.023000
      2 C5           2.3800     0.0000     0.9860 cc         1 4W5      -0.089100
      3 C8           2.1200    -0.0020    -1.2880 ca         1 4W5      -0.017000
      4 C9           1.4060     0.0000     0.0000 ca         1 4W5      -0.217000
      5 C13         -4.2740    -0.0260    -2.3000 c3         1 4W5       0.147400
      6 C14         -4.8570    -0.0330    -3.7150 c3         1 4W5      -0.096100
      7 C1           1.3670    -0.0030    -2.4850 ca         1 4W5      -0.122000
      8 C2           0.0170    -0.0080    -2.4330 ca         1 4W5      -0.068000
      9 C3          -0.6770    -0.0080    -1.2060 ca         1 4W5      -0.172600
     10 N6           3.5750    -0.0010     0.3820 na         1 4W5       0.026800
     11 N7           3.4090    -0.0020    -1.0080 nc         1 4W5      -0.275400
     12 O11         -2.8240    -0.0200    -2.3740 os         1 4W5      -0.430900
     13 O12         -2.7590    -0.0130    -0.1550 o          1 4W5      -0.563000
     14 H1          -0.5420     0.1590     0.9250 ha         1 4W5       0.153000
     15 H2           2.2060     0.0010     2.0550 h4         1 4W5       0.179000
     16 H3          -4.6050    -0.9110    -1.7690 h1         1 4W5       0.048700
     17 H4          -4.6120     0.8580    -1.7750 h1         1 4W5       0.048700
     18 H5          -4.5180    -0.9180    -4.2400 hc         1 4W5       0.046700
     19 H6          -5.9380    -0.0380    -3.6590 hc         1 4W5       0.046700
     20 H7          -4.5260     0.8510    -4.2460 hc         1 4W5       0.046700
     21 H8           1.8720    -0.0040    -3.4430 ha         1 4W5       0.144000
     22 H9          -0.5470    -0.0150    -3.3580 ha         1 4W5       0.149000
     23 H10          4.4570    -0.0010     0.8540 hn         1 4W5       0.333700
     24 C10         -2.1510    -0.0140    -1.2070 c          1 4W5       0.654700
@<TRIPOS>BOND
     1     6     5 1
     2     7     8 ar
     3     7     3 ar
     4     8     9 ar
     5     5    12 1
     6     3    11 2
     7     3     4 ar
     8     9    24 1
     9     9     1 ar
    10    11    10 1
    11    12    24 1
    12    24    13 2
    13     4     1 ar
    14     4     2 2
    15    10     2 1
    16     1    14 1
    17     2    15 1
    18     5    16 1
    19     5    17 1
    20     6    18 1
    21     6    19 1
    22     6    20 1
    23     7    21 1
    24     8    22 1
    25    10    23 1
@<TRIPOS>SUBSTRUCTURE
     1 4W5         1 TEMP              0 ****  ****    0 ROOT
