@<TRIPOS>MOLECULE
molecule
   42    44     1     0     0
SMALL
bcc


@<TRIPOS>ATOM
      1 C1           0.0000     0.0000     0.0000 c3         1 4W6      -0.080100
      2 C2           1.5300     0.0000     0.0000 c3         1 4W6      -0.064400
      3 C3           2.0410     0.0000     1.4420 c3         1 4W6      -0.273200
      4 C4           3.5480     0.0010     1.4420 cc         1 4W6       0.144800
      5 C5           4.2250     1.1660     1.5450 cd         1 4W6      -0.372200
      6 C6           5.6350     1.1580     1.5440 c          1 4W6       0.614500
      7 O7           6.2530     2.2040     1.6360 o          1 4W6      -0.569500
      8 N8           6.2980    -0.0120     1.4410 n          1 4W6       0.099300
      9 N9           7.6640    -0.3150     1.4140 nd         1 4W6      -0.453800
     10 C10          7.8180    -1.6050     1.3010 cc         1 4W6       0.436600
     11 C11          9.1360    -2.3330     1.2370 c3         1 4W6      -0.205700
     12 C12          9.5760    -2.6990     2.6310 c          1 4W6       0.662100
     13 O13          8.8860    -2.3980     3.5830 o          1 4W6      -0.606100
     14 N14         10.7350    -3.3600     2.8200 n          1 4W6      -0.425800
     15 C15         11.6670    -3.7800     1.7580 c3         1 4W6       0.015500
     16 C16         13.0420    -3.8990     2.4630 c3         1 4W6      -0.152900
     17 C17         12.6340    -4.4680     3.8480 c3         1 4W6      -0.152900
     18 C18         11.2800    -3.7770     4.1200 c3         1 4W6       0.015500
     19 C19          6.5400    -2.2050     1.2480 cc         1 4W6      -0.258300
     20 C20          6.2610    -3.6040     1.1260 cg         1 4W6       0.278800
     21 N21          6.0590    -4.7170     1.0300 n1         1 4W6      -0.382800
     22 C22          5.6030    -1.1780     1.3390 cd         1 4W6       0.227300
     23 N23          4.2300    -1.1760     1.3450 na         1 4W6      -0.613400
     24 H1          -0.5530     0.9130     0.1840 hc         1 4W6       0.045700
     25 H2          -0.3010    -0.0010    -1.0410 hc         1 4W6       0.045700
     26 H3          -0.3950    -0.9850     0.2160 hc         1 4W6       0.045700
     27 H4           2.0570     0.9440     0.0610 hc         1 4W6       0.070700
     28 H5           2.1870    -0.8530    -0.1170 hc         1 4W6       0.070700
     29 H6           1.3750    -0.5110     2.1280 hc         1 4W6       0.135700
     30 H7           2.7360     0.8090     1.6300 hc         1 4W6       0.135700
     31 H8           3.8620     2.1870     1.5510 ha         1 4W6       0.197000
     32 H10         10.0070    -1.7180     1.4290 hc         1 4W6       0.109200
     33 H11          9.0470    -3.1010     0.4780 hc         1 4W6       0.109200
     34 H12         12.5400    -3.1850     1.5170 h1         1 4W6       0.077700
     35 H13         11.4480    -3.7730     0.6970 h1         1 4W6       0.077700
     36 H14         13.7460    -3.7370     1.6550 hc         1 4W6       0.084700
     37 H15         13.2070    -4.9360     2.7280 hc         1 4W6       0.084700
     38 H16         13.3780    -5.2280     4.0540 hc         1 4W6       0.084700
     39 H17         12.2980    -4.2840     4.8610 hc         1 4W6       0.084700
     40 H18         10.6160    -4.1210     4.9030 h1         1 4W6       0.077700
     41 H19         11.8160    -3.1480     4.8200 h1         1 4W6       0.077700
     42 H9           3.4180    -1.7500     1.2330 hn         1 4W6       0.500800
@<TRIPOS>BOND
     1    21    20 3
     2    16    15 1
     3    16    17 1
     4    20    19 1
     5    15    14 1
     6    17    18 1
     7     2     1 1
     8     2     3 1
     9    13    12 2
    10    14    18 1
    11    14    12 1
    12    19    22 2
    13    19    10 1
    14    23    22 1
    15    23     4 1
    16    12    11 1
    17    22     8 1
    18     3     4 1
    19    11    10 1
    20    10     9 2
    21     4     5 2
    22     8     9 1
    23     8     6 1
    24     5     6 1
    25     6     7 2
    26     1    24 1
    27     1    25 1
    28     1    26 1
    29     2    27 1
    30     2    28 1
    31     3    29 1
    32     3    30 1
    33     5    31 1
    34    11    32 1
    35    11    33 1
    36    15    34 1
    37    15    35 1
    38    16    36 1
    39    16    37 1
    40    17    38 1
    41    17    39 1
    42    18    40 1
    43    18    41 1
    44    23    42 1
@<TRIPOS>SUBSTRUCTURE
     1 4W6         1 TEMP              0 ****  ****    0 ROOT
