@<TRIPOS>MOLECULE
4W6
   42    46     1     0     0
SMALL
bcc


@<TRIPOS>ATOM
      1 C1           0.0000     0.0000     0.0000 c3         1 4W6      -0.089000
      2 C2           1.5300     0.0000     0.0000 c3         1 4W6      -0.093000
      3 C3           2.0410     0.0000     1.4420 c3         1 4W6      -0.328000
      4 C4           3.5480     0.0010     1.4420 c3         1 4W6      -0.093000
      5 C5           4.2250     1.1660     1.5450 c2         1 4W6      -0.344000
      6 C6           5.6350     1.1580     1.5440 c2         1 4W6       0.257000
      7 O7           6.2530     2.2040     1.6360 o          1 4W6      -0.333000
      8 N8           6.2980    -0.0120     1.4410 n          1 4W6       0.311000
      9 N9           7.6640    -0.3150     1.4140 n2         1 4W6      -0.157000
     10 C10          7.8180    -1.6050     1.3010 c2         1 4W6       0.041000
     11 C11          9.1360    -2.3330     1.2370 c3         1 4W6      -0.091000
     12 C12          9.5760    -2.6990     2.6310 c2         1 4W6       0.220000
     13 O13          8.8860    -2.3980     3.5830 o          1 4W6      -0.417000
     14 N14         10.7350    -3.3600     2.8200 n          1 4W6       0.090000
     15 C15         11.6670    -3.7800     1.7580 c3         1 4W6      -0.342000
     16 C16         13.0420    -3.8990     2.4630 DU         1 4W6      -0.195000
     17 C17         12.6340    -4.4680     3.8480 c3         1 4W6      -0.164000
     18 C18         11.2800    -3.7770     4.1200 c3         1 4W6       0.007000
     19 C19          6.5400    -2.2050     1.2480 c2         1 4W6      -0.150000
     20 C20          6.2610    -3.6040     1.1260 c1         1 4W6      -0.053000
     21 N21          6.0590    -4.7170     1.0300 n1         1 4W6      -0.077000
     22 C22          5.6030    -1.1780     1.3390 c2         1 4W6      -0.164000
     23 N23          4.2300    -1.1760     1.3450 nu         1 4W6       0.258000
     24 H1          -0.5530     0.9130     0.1840 hc         1 4W6       0.047000
     25 H2          -0.3010    -0.0010    -1.0410 hc         1 4W6       0.047000
     26 H3          -0.3950    -0.9850     0.2160 hc         1 4W6       0.047000
     27 H4           2.0570     0.9440     0.0610 hc         1 4W6       0.085000
     28 H5           2.1870    -0.8530    -0.1170 hc         1 4W6       0.085000
     29 H6           1.3750    -0.5110     2.1280 hc         1 4W6       0.141000
     30 H7           2.7360     0.8090     1.6300 DU         1 4W6       0.169000
     31 H8           3.8620     2.1870     1.5510 ha         1 4W6       0.176000
     32 H10         10.0070    -1.7180     1.4290 hc         1 4W6       0.110500
     33 H11          9.0470    -3.1010     0.4780 hc         1 4W6       0.110500
     34 H12         12.5400    -3.1850     1.5170 DU         1 4W6       0.102000
     35 H13         11.4480    -3.7730     0.6970 h1         1 4W6       0.148000
     36 H14         13.7460    -3.7370     1.6550 ha         1 4W6       0.114000
     37 H15         13.2070    -4.9360     2.7280 ha         1 4W6       0.114000
     38 H16         13.3780    -5.2280     4.0540 hc         1 4W6       0.083500
     39 H17         12.2980    -4.2840     4.8610 hc         1 4W6       0.083500
     40 H18         10.6160    -4.1210     4.9030 h1         1 4W6       0.059500
     41 H19         11.8160    -3.1480     4.8200 h1         1 4W6       0.059500
     42 H9           3.4180    -1.7500     1.2330 hn         1 4W6       0.125000
@<TRIPOS>BOND
     1     1     2 1   
     2     1    24 1   
     3     1    25 1   
     4     1    26 1   
     5     2     3 1   
     6     2    27 1   
     7     2    28 1   
     8     3     4 1   
     9     3    29 1   
    10     3    30 1   
    11     4     5 1   
    12     4    23 1   
    13     4    30 1   
    14     5     6 1   
    15     5    31 1   
    16     6     7 1   
    17     6     8 1   
    18     8     9 1   
    19     8    22 1   
    20     9    10 1   
    21    10    11 1   
    22    10    19 1   
    23    11    12 1   
    24    11    32 1   
    25    11    33 1   
    26    12    13 1   
    27    12    14 1   
    28    14    15 1   
    29    14    18 1   
    30    15    16 1   
    31    15    34 1   
    32    15    35 1   
    33    16    17 1   
    34    16    34 1   
    35    16    36 1   
    36    16    37 1   
    37    17    18 1   
    38    17    38 1   
    39    17    39 1   
    40    18    40 1   
    41    18    41 1   
    42    19    20 1   
    43    19    22 1   
    44    20    21 1   
    45    22    23 1   
    46    23    42 1   
@<TRIPOS>SUBSTRUCTURE
     1 4W6         1 TEMP              0 ****  ****    0 ROOT
