@<TRIPOS>MOLECULE
4WA
   32    33     1     0     0
SMALL
bcc


@<TRIPOS>ATOM
      1 O10          0.0000     0.0000     0.0000 o          1 4WA      -0.498300
      2 S18          1.4210     0.0000     0.0000 sy         1 4WA       0.930200
      3 O9           2.1980     0.0000     1.1910 o          1 4WA      -0.498300
      4 N8           1.8880    -1.3340    -0.8640 nz         1 4WA      -0.132500
      5 C4           1.9190     1.4180    -0.9190 ca         1 4WA      -0.245500
      6 C5           1.0580     1.9720    -1.8500 ca         1 4WA       0.016500
      7 C6           1.4410     3.0830    -2.5730 ca         1 4WA      -0.117000
      8 C1           2.7010     3.6480    -2.3630 ca         1 4WA       0.220400
      9 C2           3.5660     3.0830    -1.4210 ca         1 4WA      -0.117000
     10 C3           3.1670     1.9760    -0.7020 ca         1 4WA       0.016500
     11 N11          3.0910     4.7450    -3.0800 ne         1 4WA      -0.274400
     12 N12          2.2900     5.2650    -3.9500 nf         1 4WA      -0.055400
     13 C13          2.6780     6.3600    -4.6640 ca         1 4WA       0.006400
     14 C18          1.8120     6.9240    -5.6070 ca         1 4WA      -0.020500
     15 C17          2.2070     8.0290    -6.3280 ca         1 4WA      -0.145000
     16 C16          3.4660     8.5840    -6.1180 ca         1 4WA       0.113600
     17 N19          3.8610     9.7020    -6.8480 nv         1 4WA      -0.571200
     18 C15          4.3300     8.0270    -5.1810 ca         1 4WA      -0.145000
     19 C14          3.9410     6.9250    -4.4530 ca         1 4WA      -0.020500
     20 H1           1.6230    -2.1620    -0.3680 hn         1 4WA       0.312467
     21 H2           2.8820    -1.3220    -0.9850 hn         1 4WA       0.312467
     22 H3           0.0810     1.5330    -2.0110 ha         1 4WA       0.123000
     23 H4           0.7660     3.5160    -3.3010 ha         1 4WA       0.144000
     24 H5           4.5440     3.5170    -1.2520 ha         1 4WA       0.144000
     25 H6           3.8360     1.5360     0.0280 ha         1 4WA       0.123000
     26 H9           0.8240     6.5070    -5.7540 ha         1 4WA       0.121000
     27 H10          1.5370     8.4660    -7.0590 ha         1 4WA       0.124500
     28 H11          3.6730    10.6210    -6.4980 hn         1 4WA       0.289300
     29 H12          4.3330     9.5870    -7.7240 hn         1 4WA       0.289300
     30 H13          5.3110     8.4600    -5.0240 ha         1 4WA       0.124500
     31 H14          4.7430     6.6540    -3.7770 ha         1 4WA       0.121000
     32 H83          1.4560    -1.3150    -1.7660 hn         1 4WA       0.312467
@<TRIPOS>BOND
     1     1     2 2   
     2     2     3 2   
     3     2     4 1   
     4     2     5 1   
     5     4    20 1   
     6     4    21 1   
     7     4    32 1   
     8     5     6 ar  
     9     5    10 ar  
    10     6     7 ar  
    11     6    22 1   
    12     7     8 ar  
    13     7    23 1   
    14     8     9 ar  
    15     8    11 1   
    16     9    10 ar  
    17     9    24 1   
    18    10    25 1   
    19    11    12 2   
    20    12    13 1   
    21    13    14 ar  
    22    13    19 ar  
    23    14    15 ar  
    24    14    26 1   
    25    15    16 ar  
    26    15    27 1   
    27    16    17 1   
    28    16    18 ar  
    29    17    28 1   
    30    17    29 1   
    31    18    19 ar  
    32    18    30 1   
    33    19    31 1   
@<TRIPOS>SUBSTRUCTURE
     1 4WA         1 TEMP              0 ****  ****    0 ROOT
