@<TRIPOS>MOLECULE
molecule
   32    33     1     0     0
SMALL
bcc


@<TRIPOS>ATOM
      1 O10          0.0000     0.0000     0.0000 o          1 4WA      -0.523300
      2 S18          1.4210     0.0000     0.0000 sy         1 4WA       1.220200
      3 O9           2.1980     0.0000     1.1910 o          1 4WA      -0.523300
      4 N8           1.8880    -1.3340    -0.8640 nz         1 4WA      -0.805500
      5 C4           1.9190     1.4180    -0.9190 ca         1 4WA      -0.355500
      6 C5           1.0580     1.9720    -1.8500 ca         1 4WA      -0.027000
      7 C6           1.4410     3.0830    -2.5730 ca         1 4WA      -0.132500
      8 C1           2.7010     3.6480    -2.3630 ca         1 4WA       0.242400
      9 C2           3.5660     3.0830    -1.4210 ca         1 4WA      -0.132500
     10 C3           3.1670     1.9760    -0.7020 ca         1 4WA      -0.027000
     11 N11          3.0910     4.7450    -3.0800 ne         1 4WA      -0.290400
     12 N12          2.2900     5.2650    -3.9500 nf         1 4WA      -0.140400
     13 C13          2.6780     6.3600    -4.6640 ca         1 4WA       0.052400
     14 C18          1.8120     6.9240    -5.6070 ca         1 4WA      -0.050000
     15 C17          2.2070     8.0290    -6.3280 ca         1 4WA      -0.175500
     16 C16          3.4660     8.5840    -6.1180 ca         1 4WA       0.245600
     17 N19          3.8610     9.7020    -6.8480 nv         1 4WA      -0.997200
     18 C15          4.3300     8.0270    -5.1810 ca         1 4WA      -0.175500
     19 C14          3.9410     6.9250    -4.4530 ca         1 4WA      -0.050000
     20 H1           1.4430    -1.3240    -1.7600 hn         1 4WA       0.490133
     21 H2           2.8820    -1.3210    -0.9850 hn         1 4WA       0.490133
     22 H3           0.0810     1.5330    -2.0110 ha         1 4WA       0.153500
     23 H4           0.7660     3.5160    -3.3010 ha         1 4WA       0.178000
     24 H5           4.5440     3.5170    -1.2520 ha         1 4WA       0.178000
     25 H6           3.8360     1.5360     0.0280 ha         1 4WA       0.153500
     26 H9           0.8240     6.5070    -5.7540 ha         1 4WA       0.155500
     27 H10          1.5370     8.4660    -7.0590 ha         1 4WA       0.156000
     28 H11          3.6730    10.6210    -6.4980 hn         1 4WA       0.444300
     29 H12          4.3330     9.5870    -7.7240 hn         1 4WA       0.444300
     30 H13          5.3110     8.4600    -5.0240 ha         1 4WA       0.156000
     31 H14          4.7430     6.6540    -3.7770 ha         1 4WA       0.155500
     32 H83          1.6080    -2.1620    -0.3760 hn         1 4WA       0.490133
@<TRIPOS>BOND
     1    18    19 ar  
     2    18    16 ar  
     3    19    13 ar  
     4    17    16 1   
     5    16    15 ar  
     6    12    13 1   
     7    12    11 2   
     8    13    14 ar  
     9    11     8 1   
    10    15    14 ar  
    11     8     9 ar  
    12     8     7 ar  
    13     9    10 ar  
    14     7     6 ar  
    15    10     5 ar  
    16     6     5 ar  
    17     5     2 1   
    18     4     2 1   
    19     1     2 2   
    20     2     3 2   
    21     4    20 1   
    22     4    21 1   
    23     6    22 1   
    24     7    23 1   
    25     9    24 1   
    26    10    25 1   
    27    14    26 1   
    28    15    27 1   
    29    17    28 1   
    30    17    29 1   
    31    18    30 1   
    32    19    31 1   
    33    32     4 1   
@<TRIPOS>SUBSTRUCTURE
     1 4WA         1 TEMP              0 ****  ****    0 ROOT
