@<TRIPOS>MOLECULE
4WC
   27    27     1     0     0
SMALL
bcc


@<TRIPOS>ATOM
      1 CAD         0.0160   -0.1800   -0.0440 c3        1 4WC     -0.072400
      2 CAC         1.5280   -0.0920   -0.0470 c3        1 4WC     -0.074400
      3 CAB         2.0740    0.0840    1.3550 c3        1 4WC     -0.072400
      4 CAG         1.5830   -1.0170    2.2730 c3        1 4WC     -0.074400
      5 CAF         0.0700   -1.0980    2.2740 c3        1 4WC     -0.072400
      6 CAE        -0.4790   -1.2960    0.8680 c3        1 4WC     -0.062700
      7 CAH        -1.9980   -1.3460    0.8720 c3        1 4WC     -0.080400
      8 CAI        -2.5440   -2.6930    1.3300 c3        1 4WC      0.014100
      9 CBM        -4.0790   -2.5900    1.5390 c         1 4WC      0.892600
     10 OBO        -4.5090   -1.8740    2.4820 o         1 4WC     -0.837300
     11 OBN        -4.8040   -3.2470    0.7360 o         1 4WC     -0.837300
     12 O3         -2.2080   -3.6970    0.3850 oh        1 4WC     -0.649800
     13 HAD1       -0.3480   -0.3650   -1.0880 hc        1 4WC      0.038950
     14 HAD2       -0.4180    0.7960    0.2970 hc        1 4WC      0.038950
     15 HAC1        1.8550    0.7680   -0.6870 hc        1 4WC      0.026950
     16 HAC2        1.9540   -1.0280   -0.4960 hc        1 4WC      0.026950
     17 HAE        -0.0990   -2.2790    0.4690 hc        1 4WC      0.059700
     18 HAB1        1.7490    1.0780    1.7590 hc        1 4WC      0.024700
     19 HAB2        3.1950    0.0820    1.3270 hc        1 4WC      0.024700
     20 HAG1        1.9510   -0.8290    3.3150 hc        1 4WC      0.026950
     21 HAG2        2.0090   -1.9990    1.9370 hc        1 4WC      0.026950
     22 HAF1       -0.2610   -1.9510    2.9230 hc        1 4WC      0.038950
     23 HAF2       -0.3560   -0.1580    2.7120 hc        1 4WC      0.038950
     24 HAH1       -2.3760   -1.1460   -0.1650 hc        1 4WC      0.045700
     25 HAH2       -2.4130   -0.5550    1.5500 hc        1 4WC      0.045700
     26 HAI        -2.0580   -3.0020    2.2950 h1        1 4WC      0.035700
     27 H3         -3.0300   -3.9320   -0.0770 ho        1 4WC      0.423000
@<TRIPOS>BOND
     1    1    2 1   
     2    1    6 1   
     3    1   13 1   
     4    1   14 1   
     5    2    3 1   
     6    2   15 1   
     7    2   16 1   
     8    3    4 1   
     9    3   18 1   
    10    3   19 1   
    11    4    5 1   
    12    4   20 1   
    13    4   21 1   
    14    5    6 1   
    15    5   22 1   
    16    5   23 1   
    17    6    7 1   
    18    6   17 1   
    19    7    8 1   
    20    7   24 1   
    21    7   25 1   
    22    8    9 1   
    23    8   12 1   
    24    8   26 1   
    25    9   10 1   
    26    9   11 1   
    27   12   27 1   
@<TRIPOS>SUBSTRUCTURE
     1 4WC         1 TEMP              0 ****  ****    0 ROOT
