@<TRIPOS>MOLECULE
molecule
   27    27     1     0     0
SMALL
bcc


@<TRIPOS>ATOM
      1 CAD          0.0000     0.0000     0.0000 c3         1 4WC      -0.074900
      2 CAC          1.5300     0.0000     0.0000 c3         1 4WC      -0.080400
      3 CAB          2.0410     0.0000     1.4420 c3         1 4WC      -0.077400
      4 CAG          1.5310    -1.2490     2.1630 c3         1 4WC      -0.080400
      5 CAF          0.0010    -1.2490     2.1630 c3         1 4WC      -0.074900
      6 CAE         -0.5100    -1.2490     0.7210 c3         1 4WC      -0.073700
      7 CAH         -2.0390    -1.2500     0.7220 c3         1 4WC      -0.050400
      8 CAI         -2.5500    -2.5570     1.3320 c3         1 4WC       0.037100
      9 CBM         -4.0510    -2.5070     1.4450 c          1 4WC       0.866600
     10 OBO         -4.6330    -1.6170     2.2650 o          1 4WC      -0.844800
     11 OBN         -4.7320    -3.2670     0.7980 o          1 4WC      -0.844800
     12 O3          -2.1710    -3.6520     0.4950 oh         1 4WC      -0.621800
     13 HAD1        -0.3600     0.8840     0.5130 hc         1 4WC       0.042200
     14 HAD2        -0.3600    -0.0030    -1.0220 hc         1 4WC       0.042200
     15 HAC1         1.8900    -0.8860    -0.5090 hc         1 4WC       0.029950
     16 HAC2         1.8900     0.8860    -0.5090 hc         1 4WC       0.029950
     17 HAE         -0.1440    -2.1320     0.2110 hc         1 4WC       0.057700
     18 HAB1         3.1240    -0.0020     1.4400 hc         1 4WC       0.028200
     19 HAB2         1.6770     0.8840     1.9530 hc         1 4WC       0.028200
     20 HAG1         1.8910    -1.2470     3.1850 hc         1 4WC       0.029950
     21 HAG2         1.8910    -2.1330     1.6500 hc         1 4WC       0.029950
     22 HAF1        -0.3590    -0.3630     2.6720 hc         1 4WC       0.042200
     23 HAF2        -0.3590    -2.1360     2.6720 hc         1 4WC       0.042200
     24 HAH1        -2.4010    -0.4130     1.3070 hc         1 4WC       0.056200
     25 HAH2        -2.4010    -1.1610    -0.2960 hc         1 4WC       0.056200
     26 HAI         -2.1180    -2.6890     2.3160 h1         1 4WC       0.015700
     27 H3          -2.2830    -4.4610     0.9660 ho         1 4WC       0.389000
@<TRIPOS>BOND
     1     1     2 1   
     2     1     6 1   
     3     2     3 1   
     4     3     4 1   
     5     4     5 1   
     6     5     6 1   
     7     6     7 1   
     8     7     8 1   
     9     8     9 1   
    10     8    12 1   
    11     9    10 1   
    12     9    11 1   
    13     1    13 1   
    14     1    14 1   
    15     2    15 1   
    16     2    16 1   
    17     6    17 1   
    18     3    18 1   
    19     3    19 1   
    20     4    20 1   
    21     4    21 1   
    22     5    22 1   
    23     5    23 1   
    24     7    24 1   
    25     7    25 1   
    26     8    26 1   
    27    12    27 1   
@<TRIPOS>SUBSTRUCTURE
     1 4WC         1 TEMP              0 ****  ****    0 ROOT
