@<TRIPOS>MOLECULE
molecule
   66    69     1     0     0
SMALL
bcc


@<TRIPOS>ATOM
      1 C1           0.0000     0.0000     0.0000 c3         1 4WE      -0.107600
      2 C2           1.5300     0.0000     0.0000 c3         1 4WE       0.035000
      3 C3           2.0410     0.0000     1.4420 c3         1 4WE      -0.107600
      4 C5           1.7010    -2.4760    -0.4000 cc         1 4WE       0.428800
      5 C6           0.7740    -2.9180     0.7020 c3         1 4WE      -0.110400
      6 C8           3.0660    -2.5420    -2.0730 cc         1 4WE       0.380200
      7 C12          5.3500     0.9530    -3.3670 ca         1 4WE       0.931900
      8 N13          4.6570     2.0440    -3.6550 nb         1 4WE      -0.768000
      9 C15          2.7480     1.0750    -2.7180 ca         1 4WE      -0.181700
     10 C18          7.2720     1.9350    -4.4340 ca         1 4WE       0.181600
     11 C19          6.5190     2.6180    -5.3870 ca         1 4WE      -0.158000
     12 C21          8.4170     4.0070    -5.8770 ca         1 4WE      -0.169600
     13 C23          8.5970     2.2920    -4.2050 ca         1 4WE      -0.158000
     14 C24          9.0250     5.1100    -6.6440 c          1 4WE       0.677700
     15 O25          8.3690     5.7060    -7.4760 o          1 4WE      -0.609100
     16 C27         10.9140     6.5510    -7.1860 c3         1 4WE       0.111000
     17 C30         14.4250     7.8910    -7.2890 c3         1 4WE       0.162800
     18 C31         15.0420     8.9480    -8.2070 c3         1 4WE      -0.077900
     19 C32         14.4080    10.3090    -7.9090 c3         1 4WE      -0.083400
     20 C33         12.8920    10.2110    -8.0990 c3         1 4WE      -0.077900
     21 C34         12.3380     9.1170    -7.1830 c3         1 4WE       0.162800
     22 N4           2.0180    -1.1970    -0.6910 na         1 4WE      -0.162900
     23 N7           2.3320    -3.2690    -1.2250 nc         1 4WE      -0.705000
     24 C9           2.8880    -1.2290    -1.7590 cd         1 4WE      -0.326100
     25 C10          3.5060    -0.0680    -2.4310 ca         1 4WE       0.578800
     26 N11          4.7950    -0.0880    -2.7700 nb         1 4WE      -0.761000
     27 C14          3.3710     2.1370    -3.3500 ca         1 4WE       0.471200
     28 N17          6.6950     0.8990    -3.7050 nu         1 4WE      -0.750300
     29 C20          7.0840     3.6470    -6.1040 ca         1 4WE      -0.067500
     30 C22          9.1690     3.3190    -4.9190 ca         1 4WE      -0.067500
     31 N26         10.3090     5.4560    -6.4230 ns         1 4WE      -0.588900
     32 C28         12.3670     6.7360    -6.7450 c3         1 4WE       0.144800
     33 N29         12.9750     7.8350    -7.5090 n3         1 4WE      -0.724600
     34 H1          -0.3610    -0.5640    -0.8510 hc         1 4WE       0.049700
     35 H2          -0.3610     1.0190    -0.0630 hc         1 4WE       0.049700
     36 H3          -0.3610    -0.4550     0.9140 hc         1 4WE       0.049700
     37 H4           1.8910     0.8840    -0.5110 h1         1 4WE       0.087700
     38 H5           2.4400     0.9770     1.6830 hc         1 4WE       0.049700
     39 H6           1.2240    -0.2320     2.1140 hc         1 4WE       0.049700
     40 H7           2.8190    -0.7450     1.5490 hc         1 4WE       0.049700
     41 H8           0.8260    -3.9950     0.8080 hc         1 4WE       0.057033
     42 H9           1.0700    -2.4490     1.6330 hc         1 4WE       0.057033
     43 H10         -0.2410    -2.6270     0.4590 hc         1 4WE       0.057033
     44 H11          3.6920    -2.9290    -2.8670 h4         1 4WE       0.051100
     45 H12          5.4880     2.3390    -5.5630 ha         1 4WE       0.147500
     46 H13          9.1800     1.7590    -3.4630 ha         1 4WE       0.147500
     47 H14         10.3620     7.4650    -7.0050 h1         1 4WE       0.062700
     48 H15         10.8850     6.3150    -8.2430 h1         1 4WE       0.062700
     49 H17         14.8600     6.9240    -7.5110 h1         1 4WE       0.034450
     50 H18         14.8540     8.6820    -9.2400 hc         1 4WE       0.049950
     51 H19         16.1090     9.0010    -8.0300 hc         1 4WE       0.049950
     52 H20         14.8100    11.0510    -8.5890 hc         1 4WE       0.040200
     53 H21         14.6260    10.5920    -6.8860 hc         1 4WE       0.040200
     54 H22         12.4350    11.1600    -7.8450 hc         1 4WE       0.049950
     55 H23         12.6730     9.9620    -9.1300 hc         1 4WE       0.049950
     56 H24         11.2670     9.0350    -7.3280 h1         1 4WE       0.034450
     57 H25         12.5480     9.3710    -6.1510 h1         1 4WE       0.034450
     58 H26          2.8150     3.0360    -3.5890 h4         1 4WE       0.046100
     59 H27          7.2430     0.1020    -3.4490 hn         1 4WE       0.471800
     60 H28          6.4980     4.1770    -6.8450 ha         1 4WE       0.143500
     61 H29         10.2010     3.5960    -4.7400 ha         1 4WE       0.143500
     62 H30         10.8530     4.9550    -5.7490 hn         1 4WE       0.311500
     63 H31         12.9190     5.8220    -6.9260 h1         1 4WE       0.034200
     64 H32         12.3970     6.9720    -5.6880 h1         1 4WE       0.034200
     65 F16          1.4380     1.1380    -2.3930 f          1 4WE      -0.129900
     66 H16         14.6220     8.1520    -6.2560 h1         1 4WE       0.034450
@<TRIPOS>BOND
     1    27     8 ar  
     2    27     9 ar  
     3     8     7 ar  
     4    65     9 1   
     5     9    25 ar  
     6     7    28 1   
     7     7    26 ar  
     8    28    10 1   
     9    25    26 ar  
    10    25    24 1   
    11     6    24 2   
    12     6    23 1   
    13    10    11 ar  
    14    10    13 ar  
    15    24    22 1   
    16    11    29 ar  
    17    23     4 2   
    18    13    30 ar  
    19    29    12 ar  
    20    22     4 1   
    21    22     2 1   
    22     4     5 1   
    23     2     1 1   
    24     2     3 1   
    25    30    12 ar  
    26    12    14 1   
    27    14    31 1   
    28    14    15 2   
    29    31    16 1   
    30    16    32 1   
    31    32    33 1   
    32    33    17 1   
    33    33    21 1   
    34    17    18 1   
    35    21    20 1   
    36    18    19 1   
    37    20    19 1   
    38     1    34 1   
    39     1    35 1   
    40     1    36 1   
    41     2    37 1   
    42     3    38 1   
    43     3    39 1   
    44     3    40 1   
    45     5    41 1   
    46     5    42 1   
    47     5    43 1   
    48     6    44 1   
    49    11    45 1   
    50    13    46 1   
    51    16    47 1   
    52    16    48 1   
    53    17    66 1   
    54    17    49 1   
    55    18    50 1   
    56    18    51 1   
    57    19    52 1   
    58    19    53 1   
    59    20    54 1   
    60    20    55 1   
    61    21    56 1   
    62    21    57 1   
    63    27    58 1   
    64    28    59 1   
    65    29    60 1   
    66    30    61 1   
    67    31    62 1   
    68    32    63 1   
    69    32    64 1   
@<TRIPOS>SUBSTRUCTURE
     1 4WE         1 TEMP              0 ****  ****    0 ROOT
