@<TRIPOS>MOLECULE
4WE
   66    69     1     0     0
SMALL
bcc


@<TRIPOS>ATOM
      1 C1           0.0000     0.0000     0.0000 c3         1 4WE      -0.015100
      2 C2           1.5300     0.0000     0.0000 c3         1 4WE      -0.100000
      3 C3           2.0410     0.0000     1.4420 c3         1 4WE      -0.015100
      4 C5           1.7010    -2.4760    -0.4000 cc         1 4WE       0.217800
      5 C6           0.7740    -2.9180     0.7020 c3         1 4WE      -0.009400
      6 C8           3.0660    -2.5420    -2.0730 cd         1 4WE       0.383200
      7 C12          5.3500     0.9530    -3.3670 ca         1 4WE       0.696900
      8 N13          4.6570     2.0440    -3.6550 nb         1 4WE      -0.669000
      9 C15          2.7480     1.0750    -2.7180 ca         1 4WE      -0.215700
     10 C18          7.2720     1.9350    -4.4340 ca         1 4WE       0.016600
     11 C19          6.5190     2.6180    -5.3870 ca         1 4WE      -0.134000
     12 C21          8.4170     4.0070    -5.8770 ca         1 4WE      -0.175600
     13 C23          8.5970     2.2920    -4.2050 ca         1 4WE      -0.134000
     14 C24          9.0250     5.1100    -6.6440 c          1 4WE       0.599700
     15 O25          8.3690     5.7060    -7.4760 o          1 4WE      -0.649100
     16 C27         10.9140     6.5510    -7.1860 c3         1 4WE       0.040000
     17 C30         14.4250     7.8910    -7.2890 c3         1 4WE       0.149300
     18 C31         15.0420     8.9480    -8.2070 c3         1 4WE      -0.023400
     19 C32         14.4080    10.3090    -7.9090 c3         1 4WE      -0.027400
     20 C33         12.8920    10.2110    -8.0990 c3         1 4WE      -0.023400
     21 C34         12.3380     9.1170    -7.1830 c3         1 4WE       0.149300
     22 N4           2.0180    -1.1970    -0.6910 na         1 4WE       0.332100
     23 N7           2.3320    -3.2690    -1.2250 nd         1 4WE      -0.627000
     24 C9           2.8880    -1.2290    -1.7590 cc         1 4WE      -0.515100
     25 C10          3.5060    -0.0680    -2.4310 ca         1 4WE       0.563800
     26 N11          4.7950    -0.0880    -2.7700 nb         1 4WE      -0.653000
     27 C14          3.3710     2.1370    -3.3500 ca         1 4WE       0.470200
     28 N17          6.6950     0.8990    -3.7050 nu         1 4WE      -0.278300
     29 C20          7.0840     3.6470    -6.1040 ca         1 4WE      -0.037500
     30 C22          9.1690     3.3190    -4.9190 ca         1 4WE      -0.037500
     31 N26         10.3090     5.4560    -6.4230 ns         1 4WE      -0.203900
     32 C28         12.3670     6.7360    -6.7450 c3         1 4WE       0.140800
     33 N29         12.9750     7.8350    -7.5090 n3         1 4WE      -0.530600
     34 H1          -0.3610    -0.5640    -0.8510 hc         1 4WE       0.019533
     35 H2          -0.3610     1.0190    -0.0630 hc         1 4WE       0.019533
     36 H3          -0.3610    -0.4550     0.9140 hc         1 4WE       0.019533
     37 H4           1.8910     0.8840    -0.5110 h1         1 4WE       0.068700
     38 H5           2.4400     0.9770     1.6830 hc         1 4WE       0.019533
     39 H6           1.2240    -0.2320     2.1140 hc         1 4WE       0.019533
     40 H7           2.8190    -0.7450     1.5490 hc         1 4WE       0.019533
     41 H8           0.8260    -3.9950     0.8080 hc         1 4WE       0.017367
     42 H9           1.0700    -2.4490     1.6330 hc         1 4WE       0.017367
     43 H10         -0.2410    -2.6270     0.4590 hc         1 4WE       0.017367
     44 H11          3.6920    -2.9290    -2.8670 h4         1 4WE       0.008100
     45 H12          5.4880     2.3390    -5.5630 ha         1 4WE       0.123000
     46 H13          9.1800     1.7590    -3.4630 ha         1 4WE       0.123000
     47 H14         10.3620     7.4650    -7.0050 h1         1 4WE       0.036700
     48 H15         10.8850     6.3150    -8.2430 h1         1 4WE       0.036700
     49 H17         14.8600     6.9240    -7.5110 h1         1 4WE       0.009950
     50 H18         14.8540     8.6820    -9.2400 hc         1 4WE       0.020450
     51 H19         16.1090     9.0010    -8.0300 hc         1 4WE       0.020450
     52 H20         14.8100    11.0510    -8.5890 hc         1 4WE       0.013200
     53 H21         14.6260    10.5920    -6.8860 hc         1 4WE       0.013200
     54 H22         12.4350    11.1600    -7.8450 hc         1 4WE       0.020450
     55 H23         12.6730     9.9620    -9.1300 hc         1 4WE       0.020450
     56 H24         11.2670     9.0350    -7.3280 h1         1 4WE       0.009950
     57 H25         12.5480     9.3710    -6.1510 h1         1 4WE       0.009950
     58 H26          2.8150     3.0360    -3.5890 h4         1 4WE      -0.001900
     59 H27          7.2430     0.1020    -3.4490 hn         1 4WE       0.297800
     60 H28          6.4980     4.1770    -6.8450 ha         1 4WE       0.114500
     61 H29         10.2010     3.5960    -4.7400 ha         1 4WE       0.114500
     62 H30         10.8530     4.9550    -5.7490 hn         1 4WE       0.177500
     63 H31         12.9190     5.8220    -6.9260 h1         1 4WE       0.008700
     64 H32         12.3970     6.9720    -5.6880 h1         1 4WE       0.008700
     65 F16          1.4380     1.1380    -2.3930 f          1 4WE      -0.116900
     66 H16         14.6220     8.1520    -6.2560 h1         1 4WE       0.009950
@<TRIPOS>BOND
     1     1     2 1   
     2     1    34 1   
     3     1    35 1   
     4     1    36 1   
     5     2     3 1   
     6     2    22 1   
     7     2    37 1   
     8     3    38 1   
     9     3    39 1   
    10     3    40 1   
    11     4     5 1   
    12     4    22 1   
    13     4    23 2   
    14     5    41 1   
    15     5    42 1   
    16     5    43 1   
    17     6    23 1   
    18     6    24 2   
    19     6    44 1   
    20     7     8 ar  
    21     7    26 ar  
    22     7    28 1   
    23     8    27 ar  
    24     9    25 ar  
    25     9    27 ar  
    26     9    65 1   
    27    10    11 ar  
    28    10    13 ar  
    29    10    28 1   
    30    11    29 ar  
    31    11    45 1   
    32    12    14 1   
    33    12    29 ar  
    34    12    30 ar  
    35    13    30 ar  
    36    13    46 1   
    37    14    15 2   
    38    14    31 1   
    39    16    31 1   
    40    16    32 1   
    41    16    47 1   
    42    16    48 1   
    43    17    18 1   
    44    17    33 1   
    45    17    49 1   
    46    17    66 1   
    47    18    19 1   
    48    18    50 1   
    49    18    51 1   
    50    19    20 1   
    51    19    52 1   
    52    19    53 1   
    53    20    21 1   
    54    20    54 1   
    55    20    55 1   
    56    21    33 1   
    57    21    56 1   
    58    21    57 1   
    59    22    24 1   
    60    24    25 1   
    61    25    26 ar  
    62    27    58 1   
    63    28    59 1   
    64    29    60 1   
    65    30    61 1   
    66    31    62 1   
    67    32    33 1   
    68    32    63 1   
    69    32    64 1   
@<TRIPOS>SUBSTRUCTURE
     1 4WE         1 TEMP              0 ****  ****    0 ROOT
