@<TRIPOS>MOLECULE
4WF
   29    30     1     0     0
SMALL
bcc


@<TRIPOS>ATOM
      1 C            0.0000     0.0000     0.0000 cc         1 4WF       0.269700
      2 N            2.0830     0.0000    -1.2170 nz         1 4WF       0.361600
      3 O           -0.6820     0.0000    -1.1680 oh         1 4WF      -0.480100
      4 CA           1.3650     0.0000     0.0000 cd         1 4WF      -0.650200
      5 CB           2.0480     0.0000     1.2330 c          1 4WF       0.656700
      6 OAC         -0.6160     0.0070     3.4100 o          1 4WF      -0.604500
      7 CAE         -3.5860    -4.0070     1.2250 ca         1 4WF      -0.060000
      8 CAF         -3.3440    -3.3540     2.4180 ca         1 4WF      -0.091000
      9 CAG         -3.3580    -3.3600     0.0250 ca         1 4WF      -0.091000
     10 CAH         -2.8760    -2.0530     2.4120 ca         1 4WF      -0.076500
     11 CAI         -2.8910    -2.0580     0.0180 ca         1 4WF      -0.076500
     12 CA0         -0.0010     0.0070     2.3610 c          1 4WF       0.575500
     13 CAJ         -2.1410     0.0140     1.2050 c3         1 4WF       0.084300
     14 NAL         -0.6760     0.0070     1.1980 n          1 4WF       0.104000
     15 OAN          3.2670     0.0010     1.2590 o          1 4WF      -0.643500
     16 NAB          1.3440     0.0000     2.3820 ns         1 4WF      -0.088500
     17 CAQ         -2.6500    -1.4050     1.2120 ca         1 4WF      -0.177300
     18 HN1          1.8280    -0.8050    -1.7550 hn         1 4WF       0.200800
     19 HN2          1.8630     0.8290    -1.7340 hn         1 4WF       0.200800
     20 HAB          1.8270     0.0000     3.2590 hn         1 4WF       0.236500
     21 HAG         -3.5480    -3.8720    -0.9110 ha         1 4WF       0.117500
     22 HAH         -2.6860    -1.5410     3.3480 ha         1 4WF       0.114500
     23 HAI         -2.7130    -1.5510    -0.9220 ha         1 4WF       0.114500
     24 HAJ1        -2.5040     0.5240     0.3210 h1         1 4WF       0.062200
     25 HAJ2        -2.4950     0.5290     2.0900 h1         1 4WF       0.062200
     26 HO          -0.7400     0.8810    -1.4990 ho         1 4WF       0.449000
     27 HAE         -3.9530    -5.0260     1.2300 ha         1 4WF       0.117000
     28 HN3          3.0650    -0.0150    -1.0250 hn         1 4WF       0.200800
     29 HAF         -3.5210    -3.8610     3.3590 ha         1 4WF       0.117500
@<TRIPOS>BOND
     1     1     3 1   
     2     1     4 2   
     3     1    14 1   
     4     2     4 1   
     5     2    18 1   
     6     2    19 1   
     7     2    28 1   
     8     3    26 1   
     9     4     5 1   
    10     5    15 2   
    11     5    16 1   
    12     6    12 2   
    13     7     8 ar  
    14     7     9 ar  
    15     7    27 1   
    16     8    10 ar  
    17     8    29 1   
    18     9    11 ar  
    19     9    21 1   
    20    10    17 ar  
    21    10    22 1   
    22    11    17 ar  
    23    11    23 1   
    24    12    14 1   
    25    12    16 1   
    26    13    14 1   
    27    13    17 1   
    28    13    24 1   
    29    13    25 1   
    30    16    20 1   
@<TRIPOS>SUBSTRUCTURE
     1 4WF         1 TEMP              0 ****  ****    0 ROOT
