@<TRIPOS>MOLECULE
4WG
   65    69     1     0     0
SMALL
bcc


@<TRIPOS>ATOM
      1 C1           0.0000     0.0000     0.0000 c3         1 4WG       0.206400
      2 C2           2.0460     0.0010    -1.2130 ca         1 4WG       0.146100
      3 C3           1.2920     0.0070    -2.3740 ca         1 4WG      -0.221000
      4 C4           1.9250     0.0130    -3.6100 ca         1 4WG       0.046600
      5 C5           3.3110     0.0130    -3.6830 ca         1 4WG      -0.187000
      6 C6           4.0660     0.0060    -2.5240 ca         1 4WG      -0.064000
      7 C7           3.4370     0.0000    -1.2870 ca         1 4WG      -0.063400
      8 C8           5.4950     0.4990    -0.1220 ca         1 4WG       0.703900
      9 C11          7.4860     0.8530     0.9870 ca         1 4WG       0.582200
     10 C12          9.4400    -0.0740     2.0110 ca         1 4WG       0.061600
     11 C15         11.7120    -1.6370     1.7040 ca         1 4WG      -0.123000
     12 C16         11.5810    -0.4790     0.9670 ca         1 4WG      -0.025000
     13 C17         10.4490     0.3260     1.1210 ca         1 4WG      -0.159600
     14 C18         10.3500     1.5910     0.3850 c          1 4WG       0.627100
     15 C21          2.0280     0.0250    -5.9720 c3         1 4WG       0.140800
     16 C23          0.1730    -0.9830    -7.3050 c3         1 4WG       0.189100
     17 C24         -0.6830    -0.9960    -6.0360 c3         1 4WG      -0.046900
     18 O1          11.3740     2.2330     0.2510 o          1 4WG      -0.691500
     19 N4           9.2470     2.0960    -0.1470 n          1 4WG       0.057000
     20 C10          7.9770     1.5180    -0.1360 ca         1 4WG      -0.404000
     21 C9           7.1650     1.6100    -1.2570 ca         1 4WG       0.474200
     22 N1           5.9440     1.0940    -1.2160 nb         1 4WG      -0.682000
     23 C14         10.7250    -2.0120     2.6000 ca         1 4WG      -0.067000
     24 C13          9.5930    -1.2360     2.7540 ca         1 4WG      -0.126000
     25 N3           8.2700     0.6710     2.1160 na         1 4WG      -0.381700
     26 C20          7.8730     1.2560     3.3990 c3         1 4WG       0.225100
     27 N2           6.2440     0.3780     0.9640 nb         1 4WG      -0.691000
     28 N            4.2030    -0.0060    -0.1110 nu         1 4WG      -0.256300
     29 O            1.4290     0.0000     0.0000 os         1 4WG      -0.316900
     30 C           -0.5090     0.0000     1.4430 c3         1 4WG      -0.000100
     31 N5           1.1640     0.0180    -4.7850 nh         1 4WG      -0.358000
     32 C25          0.2310    -1.1150    -4.8130 c3         1 4WG       0.140800
     33 O2          -0.6690    -0.8140    -8.4470 oh         1 4WG      -0.581800
     34 C22          1.1690     0.1770    -7.2290 c3         1 4WG      -0.046900
     35 H1          -0.3610    -0.8850    -0.5100 h1         1 4WG       0.001700
     36 H2          -0.3610     0.8850    -0.5100 h1         1 4WG       0.001700
     37 H3           0.2110     0.0070    -2.3180 ha         1 4WG       0.133000
     38 H4           3.8030     0.0170    -4.6480 ha         1 4WG       0.125000
     39 H5           5.1470     0.0060    -2.5820 ha         1 4WG       0.151000
     40 H6          12.5970    -2.2510     1.5890 ha         1 4WG       0.107000
     41 H7          12.3570    -0.1930     0.2670 ha         1 4WG       0.120000
     42 H8           8.4370     3.9340    -0.7340 h1         1 4WG       0.023367
     43 H9           9.6140     3.2430    -1.8590 h1         1 4WG       0.023367
     44 H10         10.1610     3.9680    -0.3410 h1         1 4WG       0.023367
     45 H11          2.7210     0.8550    -5.9080 h1         1 4WG       0.018200
     46 H12          2.5770    -0.9080    -6.0230 h1         1 4WG       0.018200
     47 H13          0.7150    -1.9180    -7.3840 h1         1 4WG      -0.004300
     48 H14         -1.2490    -0.0750    -5.9740 hc         1 4WG       0.029700
     49 H15         -1.3590    -1.8420    -6.0650 hc         1 4WG       0.029700
     50 H16          7.5250     2.0950    -2.1560 h4         1 4WG      -0.006900
     51 H17         10.8370    -2.9230     3.1750 ha         1 4WG       0.103000
     52 H18          8.8240    -1.5330     3.4570 ha         1 4WG       0.115000
     53 H19          7.2640     2.1340     3.2230 h1         1 4WG       0.006700
     54 H20          8.7580     1.5360     3.9580 h1         1 4WG       0.006700
     55 H21          7.3040     0.5290     3.9660 h1         1 4WG       0.006700
     56 H22          3.8270    -0.4000     0.7290 hn         1 4WG       0.299800
     57 H23         -0.0480    -0.8140     1.9890 hc         1 4WG       0.011367
     58 H24         -1.5850    -0.1270     1.4470 hc         1 4WG       0.011367
     59 H25         -0.2550     0.9410     1.9160 hc         1 4WG       0.011367
     60 H26         -0.3720    -1.1080    -3.9120 h1         1 4WG       0.018200
     61 H27          0.7910    -2.0410    -4.8720 h1         1 4WG       0.018200
     62 H28         -0.5930    -1.5680    -9.0080 ho         1 4WG       0.387000
     63 H29          0.6280     1.1150    -7.1840 hc         1 4WG       0.029700
     64 H30          1.8060     0.1630    -8.1050 hc         1 4WG       0.029700
     65 C19          9.3730     3.3950    -0.8140 c3         1 4WG       0.043300
@<TRIPOS>BOND
     1     1    29 1   
     2     1    30 1   
     3     1    35 1   
     4     1    36 1   
     5     2     3 ar  
     6     2     7 ar  
     7     2    29 1   
     8     3     4 ar  
     9     3    37 1   
    10     4     5 ar  
    11     4    31 1   
    12     5     6 ar  
    13     5    38 1   
    14     6     7 ar  
    15     6    39 1   
    16     7    28 1   
    17     8    22 ar  
    18     8    27 ar  
    19     8    28 1   
    20     9    20 ar  
    21     9    25 1   
    22     9    27 ar  
    23    10    13 ar  
    24    10    24 ar  
    25    10    25 1   
    26    11    12 ar  
    27    11    23 ar  
    28    11    40 1   
    29    12    13 ar  
    30    12    41 1   
    31    13    14 1   
    32    14    18 2   
    33    14    19 1   
    34    15    31 1   
    35    15    34 1   
    36    15    45 1   
    37    15    46 1   
    38    16    17 1   
    39    16    33 1   
    40    16    34 1   
    41    16    47 1   
    42    17    32 1   
    43    17    48 1   
    44    17    49 1   
    45    19    20 1   
    46    19    65 1   
    47    20    21 ar  
    48    21    22 ar  
    49    21    50 1   
    50    23    24 ar  
    51    23    51 1   
    52    24    52 1   
    53    25    26 1   
    54    26    53 1   
    55    26    54 1   
    56    26    55 1   
    57    28    56 1   
    58    30    57 1   
    59    30    58 1   
    60    30    59 1   
    61    31    32 1   
    62    32    60 1   
    63    32    61 1   
    64    33    62 1   
    65    34    63 1   
    66    34    64 1   
    67    42    65 1   
    68    43    65 1   
    69    44    65 1   
@<TRIPOS>SUBSTRUCTURE
     1 4WG         1 TEMP              0 ****  ****    0 ROOT
