@<TRIPOS>MOLECULE
molecule
   65    69     1     0     0
SMALL
bcc


@<TRIPOS>ATOM
      1 C1           0.0000     0.0000     0.0000 c3         1 4WG       0.138400
      2 C2           2.0460     0.0010    -1.2130 ca         1 4WG       0.128100
      3 C3           1.2920     0.0070    -2.3740 ca         1 4WG      -0.226000
      4 C4           1.9250     0.0130    -3.6100 ca         1 4WG       0.120600
      5 C5           3.3110     0.0130    -3.6830 ca         1 4WG      -0.203000
      6 C6           4.0660     0.0060    -2.5240 ca         1 4WG      -0.083000
      7 C7           3.4370     0.0000    -1.2870 ca         1 4WG       0.109600
      8 C8           5.4950     0.4990    -0.1220 ca         1 4WG       0.940900
      9 C11          7.4860     0.8530     0.9870 ca         1 4WG       0.746200
     10 C12          9.4400    -0.0740     2.0110 ca         1 4WG       0.195600
     11 C15         11.7120    -1.6370     1.7040 ca         1 4WG      -0.150000
     12 C16         11.5810    -0.4790     0.9670 ca         1 4WG      -0.059000
     13 C17         10.4490     0.3260     1.1210 ca         1 4WG      -0.157600
     14 C18         10.3500     1.5910     0.3850 c          1 4WG       0.721100
     15 C21          2.0280     0.0250    -5.9720 c3         1 4WG       0.166800
     16 C23          0.1730    -0.9830    -7.3050 c3         1 4WG       0.145100
     17 C24         -0.6830    -0.9960    -6.0360 c3         1 4WG      -0.092900
     18 O1          11.3740     2.2330     0.2510 o          1 4WG      -0.647500
     19 N4           9.2470     2.0960    -0.1470 n          1 4WG      -0.355000
     20 C10          7.9770     1.5180    -0.1360 ca         1 4WG      -0.258000
     21 C9           7.1650     1.6100    -1.2570 ca         1 4WG       0.478200
     22 N1           5.9440     1.0940    -1.2160 nb         1 4WG      -0.784000
     23 C14         10.7250    -2.0120     2.6000 ca         1 4WG      -0.096000
     24 C13          9.5930    -1.2360     2.7540 ca         1 4WG      -0.151000
     25 N3           8.2700     0.6710     2.1160 na         1 4WG      -0.744700
     26 C20          7.8730     1.2560     3.3990 c3         1 4WG       0.250100
     27 N2           6.2440     0.3780     0.9640 nb         1 4WG      -0.800000
     28 N            4.2030    -0.0060    -0.1110 nu         1 4WG      -0.737300
     29 O            1.4290     0.0000     0.0000 os         1 4WG      -0.339900
     30 C           -0.5090     0.0000     1.4430 c3         1 4WG      -0.094100
     31 N5           1.1640     0.0180    -4.7850 nh         1 4WG      -0.595000
     32 C25          0.2310    -1.1150    -4.8130 c3         1 4WG       0.166800
     33 O2          -0.6690    -0.8140    -8.4470 oh         1 4WG      -0.602800
     34 C22          1.1690     0.1770    -7.2290 c3         1 4WG      -0.092900
     35 H1          -0.3610    -0.8850    -0.5100 h1         1 4WG       0.036700
     36 H2          -0.3610     0.8850    -0.5100 h1         1 4WG       0.036700
     37 H3           0.2110     0.0070    -2.3180 ha         1 4WG       0.144000
     38 H4           3.8030     0.0170    -4.6480 ha         1 4WG       0.139000
     39 H5           5.1470     0.0060    -2.5820 ha         1 4WG       0.175000
     40 H6          12.5970    -2.2510     1.5890 ha         1 4WG       0.136000
     41 H7          12.3570    -0.1930     0.2670 ha         1 4WG       0.152000
     42 H8           8.4370     3.9340    -0.7340 h1         1 4WG       0.052033
     43 H9           9.6140     3.2430    -1.8590 h1         1 4WG       0.052033
     44 H10         10.1610     3.9680    -0.3410 h1         1 4WG       0.052033
     45 H11          2.7210     0.8550    -5.9080 h1         1 4WG       0.042950
     46 H12          2.5770    -0.9080    -6.0230 h1         1 4WG       0.042950
     47 H13          0.7150    -1.9180    -7.3840 h1         1 4WG       0.026700
     48 H14         -1.2490    -0.0750    -5.9740 hc         1 4WG       0.061200
     49 H15         -1.3590    -1.8420    -6.0650 hc         1 4WG       0.061200
     50 H16          7.5250     2.0950    -2.1560 h4         1 4WG       0.037100
     51 H17         10.8370    -2.9230     3.1750 ha         1 4WG       0.134000
     52 H18          8.8240    -1.5330     3.4570 ha         1 4WG       0.144000
     53 H19          7.2640     2.1340     3.2230 h1         1 4WG       0.041033
     54 H20          8.7580     1.5360     3.9580 h1         1 4WG       0.041033
     55 H21          7.3040     0.5290     3.9660 h1         1 4WG       0.041033
     56 H22          3.8270    -0.4000     0.7290 hn         1 4WG       0.476800
     57 H23         -0.0480    -0.8140     1.9890 hc         1 4WG       0.047700
     58 H24         -1.5850    -0.1270     1.4470 hc         1 4WG       0.047700
     59 H25         -0.2550     0.9410     1.9160 hc         1 4WG       0.047700
     60 H26         -0.3720    -1.1080    -3.9120 h1         1 4WG       0.042950
     61 H27          0.7910    -2.0410    -4.8720 h1         1 4WG       0.042950
     62 H28         -0.5930    -1.5680    -9.0080 ho         1 4WG       0.400000
     63 H29          0.6280     1.1150    -7.1840 hc         1 4WG       0.061200
     64 H30          1.8060     0.1630    -8.1050 hc         1 4WG       0.061200
     65 C19          9.3730     3.3950    -0.8140 c3         1 4WG       0.085300
@<TRIPOS>BOND
     1    30     1 1   
     2    65    19 1   
     3    22    21 ar  
     4    22     8 ar  
     5    21    20 ar  
     6     1    29 1   
     7    29     2 1   
     8     8    28 1   
     9     8    27 ar  
    10    19    20 1   
    11    19    14 1   
    12    28     7 1   
    13    20     9 ar  
    14     2     7 ar  
    15     2     3 ar  
    16    18    14 2   
    17     7     6 ar  
    18    14    13 1   
    19    27     9 ar  
    20     9    25 1   
    21     3     4 ar  
    22    13    12 ar  
    23    13    10 ar  
    24     6     5 ar  
    25    25    10 1   
    26    25    26 1   
    27    12    11 ar  
    28    10    24 ar  
    29     4     5 ar  
    30     4    31 1   
    31    11    23 ar  
    32    31    15 1   
    33    31    32 1   
    34    15    34 1   
    35    24    23 ar  
    36    32    17 1   
    37    34    16 1   
    38    17    16 1   
    39    16    33 1   
    40     1    35 1   
    41     1    36 1   
    42     3    37 1   
    43     5    38 1   
    44     6    39 1   
    45    11    40 1   
    46    12    41 1   
    47    65    42 1   
    48    65    43 1   
    49    65    44 1   
    50    15    45 1   
    51    15    46 1   
    52    16    47 1   
    53    17    48 1   
    54    17    49 1   
    55    21    50 1   
    56    23    51 1   
    57    24    52 1   
    58    26    53 1   
    59    26    54 1   
    60    26    55 1   
    61    28    56 1   
    62    30    57 1   
    63    30    58 1   
    64    30    59 1   
    65    32    60 1   
    66    32    61 1   
    67    33    62 1   
    68    34    63 1   
    69    34    64 1   
@<TRIPOS>SUBSTRUCTURE
     1 4WG         1 TEMP              0 ****  ****    0 ROOT
