@<TRIPOS>MOLECULE
molecule
   57    59     1     0     0
SMALL
bcc


@<TRIPOS>ATOM
      1 CAE          0.0000     0.0000     0.0000 c3         1 4WH      -0.081433
      2 CBC          1.5300     0.0000     0.0000 c3         1 4WH      -0.032700
      3 CAF          2.0400     0.0000     1.4430 c3         1 4WH      -0.081433
      4 CAG          2.0400    -1.2490    -0.7210 c3         1 4WH      -0.081433
      5 CAV          2.0330     1.2310    -0.7110 ca         1 4WH      -0.014300
      6 CAK          1.6980     2.4860    -0.2390 ca         1 4WH      -0.152500
      7 CAM          2.1590     3.6150    -0.8910 ca         1 4WH      -0.024500
      8 CAJ          2.8310     1.1030    -1.8320 ca         1 4WH      -0.152500
      9 CAL          3.2930     2.2320    -2.4820 ca         1 4WH      -0.024500
     10 CAW          2.9530     3.4870    -2.0150 ca         1 4WH      -0.302500
     11 SBD          3.5400     4.9260    -2.8460 sy         1 4WH       1.256200
     12 OAH          3.8180     4.5320    -4.1830 o          1 4WH      -0.618800
     13 OAI          2.6390     5.9750    -2.5180 o          1 4WH      -0.618800
     14 CBA          5.0880     5.3530    -2.1210 cc         1 4WH       0.061200
     15 CAU          5.2870     6.1720    -1.0610 cd         1 4WH      -0.132900
     16 CAD          4.2330     6.8990    -0.2660 c3         1 4WH      -0.053800
     17 NAP          6.2960     4.9280    -2.5060 nc         1 4WH      -0.284000
     18 NAQ          7.1880     5.4500    -1.7410 nd         1 4WH      -0.175800
     19 NBB          6.6320     6.2050    -0.8590 na         1 4WH       0.227300
     20 CAZ          7.2970     6.9320     0.1410 ca         1 4WH      -0.084200
     21 CAN          6.8540     6.8740     1.4530 ca         1 4WH      -0.053000
     22 CAT          7.5080     7.5900     2.4370 ca         1 4WH      -0.141300
     23 CAC          7.0250     7.5250     3.8630 c3         1 4WH      -0.030800
     24 CAX          8.6110     8.3670     2.1150 ca         1 4WH       0.195100
     25 OAR          9.2530     9.0700     3.0850 os         1 4WH      -0.317900
     26 CAA         10.3810     9.8500     2.6830 c3         1 4WH       0.125700
     27 CAO          9.0590     8.4290     0.8040 ca         1 4WH      -0.311000
     28 CAY          8.4080     7.7080    -0.1840 ca         1 4WH       0.204100
     29 OAS          8.8460     7.7680    -1.4700 os         1 4WH      -0.298900
     30 CAB          9.9830     8.5910    -1.7310 c3         1 4WH       0.126700
     31 H1          -0.3610    -0.9660     0.3300 hc         1 4WH       0.038922
     32 H2          -0.3610     0.7690     0.6720 hc         1 4WH       0.038922
     33 H3          -0.3610     0.1970    -1.0020 hc         1 4WH       0.038922
     34 H4           1.5530     0.7930     1.9980 hc         1 4WH       0.038922
     35 H5           3.1110     0.1610     1.4470 hc         1 4WH       0.038922
     36 H6           1.8160    -0.9540     1.9050 hc         1 4WH       0.038922
     37 H7           3.1230    -1.2530    -0.7150 hc         1 4WH       0.038922
     38 H8           1.6850    -1.2460    -1.7440 hc         1 4WH       0.038922
     39 H9           1.6730    -2.1340    -0.2140 hc         1 4WH       0.038922
     40 H10          1.0750     2.5850     0.6430 ha         1 4WH       0.140500
     41 H11          1.8950     4.5990    -0.5230 ha         1 4WH       0.151500
     42 H12          3.0980     0.1200    -2.1980 ha         1 4WH       0.140500
     43 H13          3.9180     2.1330    -3.3620 ha         1 4WH       0.151500
     44 H14          3.9190     6.2810     0.5660 hc         1 4WH       0.071367
     45 H15          4.6420     7.8300     0.1090 hc         1 4WH       0.071367
     46 H16          3.3820     7.1090    -0.9020 hc         1 4WH       0.071367
     47 H17          6.0170     6.2380     1.7130 ha         1 4WH       0.153000
     48 H18          6.6280     8.4900     4.1540 hc         1 4WH       0.047033
     49 H19          6.2470     6.7750     3.9460 hc         1 4WH       0.047033
     50 H20          7.8500     7.2630     4.5130 hc         1 4WH       0.047033
     51 H21         10.8030    10.3470     3.5480 h1         1 4WH       0.045700
     52 H22         11.1280     9.2020     2.2390 h1         1 4WH       0.045700
     53 H23         10.0680    10.5910     1.9580 h1         1 4WH       0.045700
     54 H24          9.9220     9.0350     0.5540 ha         1 4WH       0.153000
     55 H25         10.2240     8.5500    -2.7860 h1         1 4WH       0.045700
     56 H26          9.7610     9.6140    -1.4500 h1         1 4WH       0.045700
     57 H27         10.8280     8.2340    -1.1540 h1         1 4WH       0.045700
@<TRIPOS>BOND
     1    16    15 1   
     2    12    11 2   
     3    13    11 2   
     4    11    14 1   
     5    11    10 1   
     6    15    14 2   
     7    15    19 1   
     8    26    25 1   
     9    29    30 1   
    10    29    28 1   
    11    27    28 ar  
    12    27    24 ar  
    13    28    20 ar  
    14    14    17 1   
    15    25    24 1   
    16    24    22 ar  
    17    20    19 1   
    18    20    21 ar  
    19    19    18 1   
    20    22    21 ar  
    21    22    23 1   
    22    10     7 ar  
    23    10     9 ar  
    24    17    18 2   
    25     7     6 ar  
    26     9     8 ar  
    27     6     5 ar  
    28     8     5 ar  
    29     5     2 1   
    30     1     2 1   
    31     2     4 1   
    32     2     3 1   
    33     1    31 1   
    34     1    32 1   
    35     1    33 1   
    36     3    34 1   
    37     3    35 1   
    38     3    36 1   
    39     4    37 1   
    40     4    38 1   
    41     4    39 1   
    42     6    40 1   
    43     7    41 1   
    44     8    42 1   
    45     9    43 1   
    46    16    44 1   
    47    16    45 1   
    48    16    46 1   
    49    21    47 1   
    50    23    48 1   
    51    23    49 1   
    52    23    50 1   
    53    26    51 1   
    54    26    52 1   
    55    26    53 1   
    56    27    54 1   
    57    30    55 1   
    58    30    56 1   
    59    30    57 1   
@<TRIPOS>SUBSTRUCTURE
     1 4WH         1 TEMP              0 ****  ****    0 ROOT
