@<TRIPOS>MOLECULE
molecule
   25    26     1     0     0
SMALL
bcc


@<TRIPOS>ATOM
      1 C2           0.0000     0.0000     0.0000 cc         1 4WJ      -0.215200
      2 C3           1.3980     0.0000     0.0000 cc         1 4WJ       0.385200
      3 N4           1.8080     0.0000     1.2430 nd         1 4WJ      -0.491800
      4 C6          -0.4170    -0.0000     1.2880 cd         1 4WJ      -0.102300
      5 C7           0.6900    -0.0010     3.5400 c3         1 4WJ       0.086000
      6 C8           0.5680     1.4370     4.0540 c3         1 4WJ      -0.125900
      7 C11         -0.5230    -0.7520     5.5880 c3         1 4WJ       0.100300
      8 C12         -0.4950    -0.8210     4.0590 c3         1 4WJ      -0.125900
      9 Br1         -1.1130     0.0070    -1.5290 br         1 4WJ      -0.027100
     10 N5           0.6800     0.0000     2.0750 na         1 4WJ       0.042400
     11 C9           0.4990     1.4220     5.5830 c3         1 4WJ       0.100300
     12 N10         -0.6680     0.6450     6.0150 ny         1 4WJ      -0.735000
     13 H13          2.0330     0.0000    -0.8780 h4         1 4WJ       0.079100
     14 H14         -1.4460    -0.0000     1.6260 h4         1 4WJ       0.175000
     15 H15          1.6150    -0.4350     3.9010 h1         1 4WJ       0.102700
     16 H17         -0.3340     1.8860     3.6570 hc         1 4WJ       0.098700
     17 H16          1.4320     2.0080     3.7380 hc         1 4WJ       0.098700
     18 H23         -1.3620    -1.3300     5.9580 hx         1 4WJ       0.112450
     19 H22          0.4010    -1.1550     5.9840 hx         1 4WJ       0.112450
     20 H25         -1.4170    -0.4150     3.6630 hc         1 4WJ       0.098700
     21 H24         -0.3840    -1.8530     3.7470 hc         1 4WJ       0.098700
     22 H19          0.4090     2.4380     5.9480 hx         1 4WJ       0.112450
     23 H18          1.3990     0.9680     5.9790 hx         1 4WJ       0.112450
     24 H20         -0.7390     0.6800     7.0130 hn         1 4WJ       0.453800
     25 H21         -1.4950     1.0320     5.6050 hn         1 4WJ       0.453800
@<TRIPOS>BOND
     1     9     1 1
     2     1     2 1
     3     1     4 2
     4     2     3 2
     5     4    10 1
     6     3    10 1
     7    10     5 1
     8     5     6 1
     9     5     8 1
    10     6    11 1
    11     8     7 1
    12    11    12 1
    13     7    12 1
    14     2    13 1
    15     4    14 1
    16     5    15 1
    17     6    16 1
    18     6    17 1
    19     7    18 1
    20     7    19 1
    21     8    20 1
    22     8    21 1
    23    11    22 1
    24    11    23 1
    25    12    24 1
    26    12    25 1
@<TRIPOS>SUBSTRUCTURE
     1 4WJ         1 TEMP              0 ****  ****    0 ROOT
