@<TRIPOS>MOLECULE
4WK
   32    31     1     0     0
SMALL
bcc


@<TRIPOS>ATOM
      1 C1           0.0000     0.0000     0.0000 c3         1 4WK      -0.012100
      2 C2           1.5300     0.0000     0.0000 c3         1 4WK      -0.090700
      3 C3           2.0400     0.0000     1.4420 c3         1 4WK      -0.012100
      4 C6           0.3290    -2.9370    -0.3170 c          1 4WK       0.556100
      5 C8          -0.1730    -4.1680     0.3940 c3         1 4WK      -0.161500
      6 C11          3.5470    -1.2500    -0.7210 c          1 4WK       0.314100
      7 C4           2.0400    -1.2490    -0.7210 c3         1 4WK      -0.040300
      8 N5           1.5520    -2.4460    -0.0310 ns         1 4WK      -0.145900
      9 O7          -0.3660    -2.3880    -1.1460 o          1 4WK      -0.596100
     10 C9           0.7710    -5.3380     0.1150 c3         1 4WK       0.007900
     11 N10         -1.5200    -4.4980    -0.0920 nz         1 4WK       0.093400
     12 H14         -0.3610    -0.2700    -0.9850 hc         1 4WK       0.028867
     13 H16         -0.3610    -0.7180     0.7270 hc         1 4WK       0.028867
     14 H15         -0.3610     0.9880     0.2580 hc         1 4WK       0.028867
     15 H17          1.8910     0.8850    -0.5110 hc         1 4WK       0.036700
     16 H20          1.2530     0.3420     2.1040 hc         1 4WK       0.028867
     17 H19          2.3350    -1.0040     1.7210 hc         1 4WK       0.028867
     18 H18          2.8930     0.6630     1.5240 hc         1 4WK       0.028867
     19 H23         -0.2090    -3.9800     1.4600 hx         1 4WK       0.096700
     20 H21          1.6790    -1.2490    -1.7430 h1         1 4WK       0.099700
     21 H22          1.3370    -2.5430     0.9420 hn         1 4WK       0.198500
     22 H26          0.9760    -4.4780    -0.5110 hc         1 4WK       0.054700
     23 H24          0.3210    -6.1820    -0.3950 hc         1 4WK       0.054700
     24 H25          1.5060    -5.5330     0.8870 hc         1 4WK       0.054700
     25 H27         -1.8460    -5.3260     0.3660 hn         1 4WK       0.238467
     26 H28         -2.1420    -3.7390     0.1080 hn         1 4WK       0.238467
     27 H29         -1.4900    -4.6530    -1.0800 hn         1 4WK       0.238467
     28 H31          5.0520    -0.5950    -1.7320 hn         1 4WK       0.256467
     29 H30          3.6430     0.1880    -2.0030 hn         1 4WK       0.256467
     30 O12          4.1530    -2.1590    -0.1970 o          1 4WK      -0.373100
     31 H133         4.4650     0.4420    -0.6140 hn         1 4WK       0.256467
     32 N13          4.2200    -0.2390    -1.3050 nz         1 4WK       0.207600
@<TRIPOS>BOND
     1     1     2 1   
     2     1    12 1   
     3     1    13 1   
     4     1    14 1   
     5     2     3 1   
     6     2     7 1   
     7     2    15 1   
     8     3    16 1   
     9     3    17 1   
    10     3    18 1   
    11     4     5 1   
    12     4     8 1   
    13     4     9 2   
    14     5    10 1   
    15     5    11 1   
    16     5    19 1   
    17     6     7 1   
    18     6    30 2   
    19     6    32 1   
    20     7     8 1   
    21     7    20 1   
    22     8    21 1   
    23    10    22 1   
    24    10    23 1   
    25    10    24 1   
    26    11    25 1   
    27    11    26 1   
    28    11    27 1   
    29    28    32 1   
    30    29    32 1   
    31    31    32 1   
@<TRIPOS>SUBSTRUCTURE
     1 4WK         1 TEMP              0 ****  ****    0 ROOT
