@<TRIPOS>MOLECULE
molecule
   15    16     1     0     0
SMALL
bcc


@<TRIPOS>ATOM
      1 O2           0.0000     0.0000     0.0000 o          1 4WL      -0.827300
      2 C1           1.2160     0.0000     0.0000 c          1 4WL       0.899200
      3 O3           1.8920     0.0000     1.1680 o          1 4WL      -0.827300
      4 C4           1.9470    -0.0060    -1.2670 cc         1 4WL      -0.057900
      5 C5           1.3830    -0.0120    -2.5220 cd         1 4WL      -0.186000
      6 C6           2.4320    -0.0160    -3.4580 cd         1 4WL      -0.011100
      7 C7           3.6280    -0.0140    -2.7630 cc         1 4WL      -0.142300
      8 N8           3.3200    -0.0010    -1.4070 na         1 4WL      -0.136100
      9 S11          2.7570    -0.0240    -5.1890 ss         1 4WL      -0.232800
     10 C10          4.4900    -0.0230    -4.9040 cd         1 4WL      -0.105100
     11 C9           4.7470    -0.0170    -3.6010 cc         1 4WL      -0.108000
     12 H5           0.3290    -0.1260    -2.7470 ha         1 4WL       0.158000
     13 H8           3.9830     0.0100    -0.6580 hn         1 4WL       0.307700
     14 H9           5.7580    -0.0160    -3.2120 ha         1 4WL       0.123000
     15 H10          5.2440    -0.0260    -5.6820 h4         1 4WL       0.148000
@<TRIPOS>BOND
     1     1     2 1
     2     2     3 1
     3     2     4 1
     4     4     5 2
     5     4     8 1
     6     5     6 1
     7     6     7 2
     8     6     9 1
     9     7     8 1
    10     7    11 1
    11     9    10 1
    12    10    11 2
    13     5    12 1
    14     8    13 1
    15    11    14 1
    16    10    15 1
@<TRIPOS>SUBSTRUCTURE
     1 4WL         1 TEMP              0 ****  ****    0 ROOT
