@<TRIPOS>MOLECULE
4WL
   15    16     1     0     0
SMALL
bcc


@<TRIPOS>ATOM
      1 O2         -0.0300   -0.0240    0.0680 o         1 4WL     -0.820800
      2 C1          1.2280   -0.0120    0.0580 c         1 4WL      0.930200
      3 O3          1.9690    0.0030    1.0820 o         1 4WL     -0.820800
      4 C4          1.9200   -0.0170   -1.2970 cc        1 4WL     -0.095900
      5 C5          1.3510   -0.0340   -2.5910 cd        1 4WL     -0.176000
      6 C6          2.4270   -0.0320   -3.5220 cd        1 4WL     -0.099100
      7 C7          3.6480   -0.0130   -2.7420 cc        1 4WL     -0.141300
      8 N8          3.3120   -0.0050   -1.4030 na        1 4WL     -0.137100
      9 S11         2.7960   -0.0430   -5.1490 ss        1 4WL     -0.080800
     10 C10         4.4720   -0.0240   -4.8850 cd        1 4WL     -0.180100
     11 C9          4.8190   -0.0090   -3.5540 cc        1 4WL     -0.119000
     12 H5          0.2870   -0.0460   -2.7990 ha        1 4WL      0.157000
     13 H8          3.9220    0.0080   -0.6280 hn        1 4WL      0.307700
     14 H9          5.8360    0.0040   -3.1620 ha        1 4WL      0.133000
     15 H10         5.1670   -0.0250   -5.7190 h4        1 4WL      0.143000
@<TRIPOS>BOND
     1    1    2 1   
     2    2    3 1   
     3    2    4 1   
     4    4    5 2   
     5    4    8 1   
     6    5    6 1   
     7    5   12 1   
     8    6    7 2   
     9    6    9 1   
    10    7    8 1   
    11    7   11 1   
    12    8   13 1   
    13    9   10 1   
    14   10   11 2   
    15   10   15 1   
    16   11   14 1   
@<TRIPOS>SUBSTRUCTURE
     1 4WL         1 TEMP              0 ****  ****    0 ROOT
