@<TRIPOS>MOLECULE
4WM
   53    53     1     0     0
SMALL
bcc


@<TRIPOS>ATOM
      1 N            0.0000     0.0000     0.0000 n7         1 4WM      -0.594200
      2 O4          -0.4370     2.2950    -0.3760 oh         1 4WM      -0.643800
      3 C12         -0.5260     1.2400     0.5850 c3         1 4WM       0.509100
      4 O3          -1.8930     1.0490     0.9570 os         1 4WM      -0.411600
      5 C13         -2.3570     1.9620     1.9530 c3         1 4WM       0.163800
      6 C16         -3.8080     1.6310     2.3120 c3         1 4WM      -0.026433
      7 C15         -1.4820     1.8440     3.2020 c3         1 4WM      -0.026433
      8 C14         -2.2810     3.3910     1.4090 c3         1 4WM      -0.026433
      9 C8           1.4690     0.0000     0.0000 c3         1 4WM       0.141500
     10 C9           1.9780     0.0000     1.4440 c3         1 4WM      -0.034400
     11 C10          1.5450    -1.2930     2.1370 c3         1 4WM      -0.039400
     12 C11          1.9750    -1.2520     3.6050 c3         1 4WM       0.409900
     13 O2           1.2710    -0.2080     4.2790 oh         1 4WM      -0.599800
     14 O1           1.6750    -2.5050     4.2240 oh         1 4WM      -0.599800
     15 C7           1.9800     1.2480    -0.7210 c3         1 4WM       0.090700
     16 SE           1.4620     1.1690    -2.6100 ss         1 4WM      -0.510200
     17 C2           2.2240     2.8480    -3.2770 c3         1 4WM       0.200600
     18 C3           1.6140     4.0000    -2.5350 c2         1 4WM      -0.177200
     19 C4           1.2290     5.1010    -3.0960 c2         1 4WM      -0.131200
     20 C5           1.3300     5.3760    -4.5680 c3         1 4WM       0.019800
     21 C6           2.3070     4.3950    -5.2210 c3         1 4WM      -0.024400
     22 C1           1.9390     2.9740    -4.7750 c3         1 4WM      -0.020400
     23 H1          -0.3340    -0.0940    -0.9390 hn         1 4WM       0.283800
     24 H4           0.0540     1.5000     1.4620 h3         1 4WM       0.058700
     25 H5          -4.1630     2.3290     3.0600 hc         1 4WM       0.015256
     26 H6          -3.8610     0.6230     2.7050 hc         1 4WM       0.015256
     27 H7          -4.4260     1.7050     1.4260 hc         1 4WM       0.015256
     28 H8          -1.2490     0.8020     3.3820 hc         1 4WM       0.015256
     29 H9          -2.0140     2.2480     4.0550 hc         1 4WM       0.015256
     30 H10         -0.5640     2.3990     3.0530 hc         1 4WM       0.015256
     31 H11         -2.6220     3.4050     0.3810 hc         1 4WM       0.015256
     32 H12         -2.9110     4.0380     2.0070 hc         1 4WM       0.015256
     33 H13         -1.2570     3.7410     1.4550 hc         1 4WM       0.015256
     34 H14          1.8300    -0.8850    -0.5100 h1         1 4WM       0.049700
     35 H15          1.5640     0.8500     1.9730 hc         1 4WM       0.023700
     36 H16          3.0590     0.0660     1.4450 hc         1 4WM       0.023700
     37 H17          0.4670    -1.3900     2.0790 hc         1 4WM       0.043700
     38 H18          2.0110    -2.1390     1.6470 hc         1 4WM       0.043700
     39 H19          1.5940    -0.1290     5.1610 ho         1 4WM       0.388500
     40 H20          2.4050    -2.7760     4.7560 ho         1 4WM       0.388500
     41 H21          3.0590     1.2940    -0.6440 h1         1 4WM       0.052200
     42 H22          1.5470     2.1310    -0.2650 h1         1 4WM       0.052200
     43 H23          3.2960     2.8490    -3.1170 h1         1 4WM       0.044700
     44 H24          1.4890     3.9060    -1.4630 ha         1 4WM       0.116000
     45 H26          0.8070     5.8730    -2.4640 ha         1 4WM       0.097000
     46 H28          0.3530     5.2610    -5.0210 hc         1 4WM       0.021200
     47 H29          1.6850     6.3880    -4.7190 hc         1 4WM       0.021200
     48 H30          3.3180     4.6250    -4.9050 hc         1 4WM       0.017200
     49 H31          2.2300     4.4690    -6.2990 hc         1 4WM       0.017200
     50 H32          2.5380     2.2550    -5.3210 hc         1 4WM       0.029700
     51 H33          0.8860     2.7960    -4.9610 hc         1 4WM       0.029700
     52 H2           3.0410    -1.0670     3.6640 h2         1 4WM      -0.029300
     53 H3          -1.0850     2.1640    -1.0480 ho         1 4WM       0.418000
@<TRIPOS>BOND
     1     1     3 1   
     2     1     9 1   
     3     1    23 1   
     4     2     3 1   
     5     2    53 1   
     6     3     4 1   
     7     3    24 1   
     8     4     5 1   
     9     5     6 1   
    10     5     7 1   
    11     5     8 1   
    12     6    25 1   
    13     6    26 1   
    14     6    27 1   
    15     7    28 1   
    16     7    29 1   
    17     7    30 1   
    18     8    31 1   
    19     8    32 1   
    20     8    33 1   
    21     9    10 1   
    22     9    15 1   
    23     9    34 1   
    24    10    11 1   
    25    10    35 1   
    26    10    36 1   
    27    11    12 1   
    28    11    37 1   
    29    11    38 1   
    30    12    13 1   
    31    12    14 1   
    32    12    52 1   
    33    13    39 1   
    34    14    40 1   
    35    15    16 1   
    36    15    41 1   
    37    15    42 1   
    38    16    17 1   
    39    17    18 1   
    40    17    22 1   
    41    17    43 1   
    42    18    19 2   
    43    18    44 1   
    44    19    20 1   
    45    19    45 1   
    46    20    21 1   
    47    20    46 1   
    48    20    47 1   
    49    21    22 1   
    50    21    48 1   
    51    21    49 1   
    52    22    50 1   
    53    22    51 1   
@<TRIPOS>SUBSTRUCTURE
     1 4WM         1 TEMP              0 ****  ****    0 ROOT
