@<TRIPOS>MOLECULE
4WN
   39    41     1     0     0
SMALL
bcc


@<TRIPOS>ATOM
      1 CAJ          0.0000     0.0000     0.0000 c3         1 4WN       0.135800
      2 CAH          1.5290     0.0000     0.0000 c3         1 4WN       0.033900
      3 CAO          2.0430     0.0000     1.4170 ca         1 4WN      -0.023300
      4 CAF          3.3650    -0.3540     1.6400 ca         1 4WN      -0.167000
      5 CAC          3.8810    -0.3670     2.9210 ca         1 4WN      -0.048000
      6 CAE          3.0780    -0.0230     3.9910 ca         1 4WN      -0.192000
      7 CAN          1.7550     0.3300     3.7720 ca         1 4WN       0.063600
      8 NAB          0.9390     0.6780     4.8520 nv         1 4WN      -0.460200
      9 CAP          1.2350     0.3400     2.4790 ca         1 4WN      -0.164300
     10 CAL         -0.2090     0.7210     2.2900 c3         1 4WN       0.227100
     11 NAR         -0.4730     1.0710     0.8910 n3         1 4WN      -0.531600
     12 CAK         -1.8980     1.3510     0.6770 c3         1 4WN       0.151800
     13 CAI         -2.0970     1.9490    -0.7170 c3         1 4WN      -0.032700
     14 CAQ         -3.5610     2.2360    -0.9360 cc         1 4WN       0.190800
     15 NAM         -4.1670     3.3560    -0.6480 nd         1 4WN      -0.613000
     16 CAD         -5.4630     3.2540    -0.9780 cd         1 4WN       0.324200
     17 CAG         -5.6680     2.0240    -1.4880 cc         1 4WN      -0.440600
     18 NAS         -4.4600     1.3810    -1.4680 na         1 4WN       0.297100
     19 CAA         -4.1930     0.0170    -1.9320 c3         1 4WN      -0.013400
     20 H1          -0.3510     0.1980    -1.0050 h1         1 4WN       0.013700
     21 H2          -0.3510    -0.9520     0.3780 h1         1 4WN       0.013700
     22 H3           1.8760    -0.8990    -0.4960 hc         1 4WN       0.027200
     23 H4           1.8760     0.8990    -0.4960 hc         1 4WN       0.027200
     24 H5           3.9970    -0.6240     0.8030 ha         1 4WN       0.105000
     25 H6           4.9160    -0.6440     3.0860 ha         1 4WN       0.097000
     26 H7           3.4800    -0.0320     4.9970 ha         1 4WN       0.108000
     27 H8          -0.0500     0.7630     4.7260 hn         1 4WN       0.268800
     28 H9           1.3460     0.8550     5.7500 hn         1 4WN       0.268800
     29 H10         -0.8380    -0.1150     2.5720 h1         1 4WN       0.009700
     30 H11         -0.4370     1.5740     2.9180 h1         1 4WN       0.009700
     31 H13         -2.2440     2.0560     1.4250 h1         1 4WN       0.012200
     32 H14         -2.4640     0.4310     0.7600 h1         1 4WN       0.012200
     33 H15         -1.7520     1.2450    -1.4640 hc         1 4WN       0.032700
     34 H16         -1.5320     2.8690    -0.7990 hc         1 4WN       0.032700
     35 H17         -6.2140     4.0240    -0.8520 h4         1 4WN       0.002100
     36 H18         -6.6070     1.6240    -1.8510 h4         1 4WN       0.152000
     37 H19         -3.9870    -0.6200    -1.0800 h1         1 4WN       0.023033
     38 H20         -3.3370     0.0220    -2.5950 h1         1 4WN       0.023033
     39 H21         -5.0590    -0.3590    -2.4630 h1         1 4WN       0.023033
@<TRIPOS>BOND
     1     1     2 1   
     2     1    11 1   
     3     1    20 1   
     4     1    21 1   
     5     2     3 1   
     6     2    22 1   
     7     2    23 1   
     8     3     4 ar  
     9     3     9 ar  
    10     4     5 ar  
    11     4    24 1   
    12     5     6 ar  
    13     5    25 1   
    14     6     7 ar  
    15     6    26 1   
    16     7     8 1   
    17     7     9 ar  
    18     8    27 1   
    19     8    28 1   
    20     9    10 1   
    21    10    11 1   
    22    10    29 1   
    23    10    30 1   
    24    11    12 1   
    25    12    13 1   
    26    12    31 1   
    27    12    32 1   
    28    13    14 1   
    29    13    33 1   
    30    13    34 1   
    31    14    15 2   
    32    14    18 1   
    33    15    16 1   
    34    16    17 2   
    35    16    35 1   
    36    17    18 1   
    37    17    36 1   
    38    18    19 1   
    39    19    37 1   
    40    19    38 1   
    41    19    39 1   
@<TRIPOS>SUBSTRUCTURE
     1 4WN         1 TEMP              0 ****  ****    0 ROOT
