@<TRIPOS>MOLECULE
molecule
   39    41     1     0     0
SMALL
bcc


@<TRIPOS>ATOM
      1 CAJ          0.0000     0.0000     0.0000 c3         1 4WN       0.153800
      2 CAH          1.5290     0.0000     0.0000 c3         1 4WN      -0.032100
      3 CAO          2.0430     0.0000     1.4170 ca         1 4WN      -0.021300
      4 CAF          3.3650    -0.3540     1.6400 ca         1 4WN      -0.187000
      5 CAC          3.8810    -0.3670     2.9210 ca         1 4WN      -0.080000
      6 CAE          3.0780    -0.0230     3.9910 ca         1 4WN      -0.211000
      7 CAN          1.7550     0.3300     3.7720 ca         1 4WN       0.209600
      8 NAB          0.9390     0.6780     4.8520 nv         1 4WN      -0.926200
      9 CAP          1.2350     0.3400     2.4790 ca         1 4WN      -0.153300
     10 CAL         -0.2090     0.7210     2.2900 c3         1 4WN       0.220100
     11 NAR         -0.4730     1.0710     0.8910 n3         1 4WN      -0.722600
     12 CAK         -1.8980     1.3510     0.6770 c3         1 4WN       0.163800
     13 CAI         -2.0970     1.9490    -0.7170 c3         1 4WN      -0.090700
     14 CAQ         -3.5610     2.2360    -0.9360 cc         1 4WN       0.396800
     15 NAM         -4.1670     3.3560    -0.6480 nd         1 4WN      -0.692000
     16 CAD         -5.4630     3.2540    -0.9780 cd         1 4WN       0.312200
     17 CAG         -5.6680     2.0240    -1.4880 cc         1 4WN      -0.280600
     18 NAS         -4.4600     1.3810    -1.4680 na         1 4WN      -0.184900
     19 CAA         -4.1930     0.0170    -1.9320 c3         1 4WN       0.032600
     20 H1          -0.3510     0.1980    -1.0050 h1         1 4WN       0.036200
     21 H2          -0.3510    -0.9520     0.3780 h1         1 4WN       0.036200
     22 H3           1.8760    -0.8990    -0.4960 hc         1 4WN       0.059700
     23 H4           1.8760     0.8990    -0.4960 hc         1 4WN       0.059700
     24 H5           3.9970    -0.6240     0.8030 ha         1 4WN       0.127000
     25 H6           4.9160    -0.6440     3.0860 ha         1 4WN       0.127000
     26 H7           3.4800    -0.0320     4.9970 ha         1 4WN       0.128000
     27 H8          -0.0500     0.7630     4.7260 hn         1 4WN       0.429300
     28 H9           1.3460     0.8550     5.7500 hn         1 4WN       0.429300
     29 H10         -0.8380    -0.1150     2.5720 h1         1 4WN       0.037700
     30 H11         -0.4370     1.5740     2.9180 h1         1 4WN       0.037700
     31 H13         -2.2440     2.0560     1.4250 h1         1 4WN       0.040700
     32 H14         -2.4640     0.4310     0.7600 h1         1 4WN       0.040700
     33 H15         -1.7520     1.2450    -1.4640 hc         1 4WN       0.067700
     34 H16         -1.5320     2.8690    -0.7990 hc         1 4WN       0.067700
     35 H17         -6.2140     4.0240    -0.8520 h4         1 4WN       0.040100
     36 H18         -6.6070     1.6240    -1.8510 h4         1 4WN       0.172000
     37 H19         -3.9870    -0.6200    -1.0800 h1         1 4WN       0.052033
     38 H20         -3.3370     0.0220    -2.5950 h1         1 4WN       0.052033
     39 H21         -5.0590    -0.3590    -2.4630 h1         1 4WN       0.052033
@<TRIPOS>BOND
     1     6     5 ar  
     2     6     7 ar  
     3     5     4 ar  
     4     8     7 1   
     5     7     9 ar  
     6     4     3 ar  
     7     9     3 ar  
     8     9    10 1   
     9     3     2 1   
    10    10    11 1   
    11     2     1 1   
    12    11     1 1   
    13    11    12 1   
    14    12    13 1   
    15    13    14 1   
    16    14    15 2   
    17    14    18 1   
    18    15    16 1   
    19    19    18 1   
    20    18    17 1   
    21    16    17 2   
    22     1    20 1   
    23     1    21 1   
    24     2    22 1   
    25     2    23 1   
    26     4    24 1   
    27     5    25 1   
    28     6    26 1   
    29     8    27 1   
    30     8    28 1   
    31    10    29 1   
    32    10    30 1   
    33    12    31 1   
    34    12    32 1   
    35    13    33 1   
    36    13    34 1   
    37    16    35 1   
    38    17    36 1   
    39    19    37 1   
    40    19    38 1   
    41    19    39 1   
@<TRIPOS>SUBSTRUCTURE
     1 4WN         1 TEMP              0 ****  ****    0 ROOT
