@<TRIPOS>MOLECULE
molecule
   35    36     1     0     0
SMALL
bcc


@<TRIPOS>ATOM
      1 CAJ          0.0000     0.0000     0.0000 c3         1 4WO       0.151800
      2 CAH          1.5290     0.0000     0.0000 c3         1 4WO      -0.031100
      3 CAO          2.0430     0.0000     1.4170 ca         1 4WO      -0.063300
      4 CAF          3.3650     0.3560     1.6400 ca         1 4WO      -0.137000
      5 CAD          3.8820     0.3670     2.9200 ca         1 4WO      -0.123000
      6 CAE          3.0800     0.0220     3.9900 ca         1 4WO      -0.148000
      7 CAN          1.7560    -0.3350     3.7720 ca         1 4WO       0.165600
      8 NAB          0.9430    -0.6850     4.8510 nv         1 4WO      -0.990200
      9 CAP          1.2360    -0.3420     2.4790 ca         1 4WO      -0.089300
     10 CAK         -0.2090    -0.7240     2.2890 c3         1 4WO       0.221100
     11 NAQ         -0.4680    -1.0750     0.8890 n3         1 4WO      -0.731600
     12 CAI         -1.8920    -1.3560     0.6720 c3         1 4WO       0.171800
     13 CAG         -2.0910    -1.9330    -0.7310 c3         1 4WO      -0.129400
     14 CAM         -3.5530    -2.2220    -0.9540 c          1 4WO       0.630100
     15 OAC         -4.3540    -1.9890    -0.0810 o          1 4WO      -0.553000
     16 OAL         -3.9650    -2.7350    -2.1240 os         1 4WO      -0.430900
     17 CAA         -5.3880    -2.9880    -2.2680 c3         1 4WO       0.139700
     18 H1          -0.3520     0.9510     0.3820 h1         1 4WO       0.039200
     19 H2          -0.3520    -0.1960    -1.0060 h1         1 4WO       0.039200
     20 H3           1.8760     0.8990    -0.4960 hc         1 4WO       0.058200
     21 H4           1.8760    -0.8990    -0.4950 hc         1 4WO       0.058200
     22 H5           3.9970     0.6280     0.8030 ha         1 4WO       0.128000
     23 H6           4.9150     0.6460     3.0850 ha         1 4WO       0.128000
     24 H7           3.4820     0.0290     4.9960 ha         1 4WO       0.134000
     25 H8           0.9720    -1.6160     5.2180 hn         1 4WO       0.427300
     26 H9           0.3690     0.0070     5.2910 hn         1 4WO       0.427300
     27 H10         -0.4370    -1.5770     2.9180 h1         1 4WO       0.048200
     28 H11         -0.8380     0.1120     2.5690 h1         1 4WO       0.048200
     29 H13         -2.2360    -2.0730     1.4080 h1         1 4WO       0.050700
     30 H14         -2.4600    -0.4390     0.7680 h1         1 4WO       0.050700
     31 H15         -1.5230    -2.8500    -0.8280 hc         1 4WO       0.079700
     32 H16         -1.7480    -1.2160    -1.4680 hc         1 4WO       0.079700
     33 H17         -5.9330    -2.0590    -2.1510 h1         1 4WO       0.049033
     34 H18         -5.5840    -3.3990    -3.2510 h1         1 4WO       0.049033
     35 H19         -5.7090    -3.6930    -1.5110 h1         1 4WO       0.049033
@<TRIPOS>BOND
     1     6     5 ar
     2     6     7 ar
     3     5     4 ar
     4     8     7 1
     5     7     9 ar
     6     4     3 ar
     7     9     3 ar
     8     9    10 1
     9     3     2 1
    10    10    11 1
    11     2     1 1
    12    15    14 2
    13     1    11 1
    14    17    16 1
    15    11    12 1
    16    14    16 1
    17    14    13 1
    18    12    13 1
    19     1    18 1
    20     1    19 1
    21     2    20 1
    22     2    21 1
    23     4    22 1
    24     5    23 1
    25     6    24 1
    26     8    25 1
    27     8    26 1
    28    10    27 1
    29    10    28 1
    30    12    29 1
    31    12    30 1
    32    13    31 1
    33    13    32 1
    34    17    33 1
    35    17    34 1
    36    17    35 1
@<TRIPOS>SUBSTRUCTURE
     1 4WO         1 TEMP              0 ****  ****    0 ROOT
