@<TRIPOS>MOLECULE
4WO
   35    36     1     0     0
SMALL
bcc


@<TRIPOS>ATOM
      1 CAJ          0.0000     0.0000     0.0000 c3         1 4WO       0.135800
      2 CAH          1.5290     0.0000     0.0000 c3         1 4WO       0.036900
      3 CAO          2.0430     0.0000     1.4170 ca         1 4WO      -0.068300
      4 CAF          3.3650     0.3560     1.6400 ca         1 4WO      -0.108000
      5 CAD          3.8820     0.3670     2.9200 ca         1 4WO      -0.096000
      6 CAE          3.0800     0.0220     3.9900 ca         1 4WO      -0.120000
      7 CAN          1.7560    -0.3350     3.7720 ca         1 4WO       0.033600
      8 NAB          0.9430    -0.6850     4.8510 nv         1 4WO      -0.559200
      9 CAP          1.2360    -0.3420     2.4790 ca         1 4WO      -0.091300
     10 CAK         -0.2090    -0.7240     2.2890 c3         1 4WO       0.221100
     11 NAQ         -0.4680    -1.0750     0.8890 n3         1 4WO      -0.543600
     12 CAI         -1.8920    -1.3560     0.6720 c3         1 4WO       0.161800
     13 CAG         -2.0910    -1.9330    -0.7310 c3         1 4WO      -0.080400
     14 CAM         -3.5530    -2.2220    -0.9540 c          1 4WO       0.694100
     15 OAC         -4.3540    -1.9890    -0.0810 o          1 4WO      -0.590000
     16 OAL         -3.9650    -2.7350    -2.1240 os         1 4WO      -0.417900
     17 CAA         -5.3880    -2.9880    -2.2680 c3         1 4WO       0.270700
     18 H1          -0.3520     0.9510     0.3820 h1         1 4WO       0.016200
     19 H2          -0.3520    -0.1960    -1.0060 h1         1 4WO       0.016200
     20 H3           1.8760     0.8990    -0.4960 hc         1 4WO       0.026200
     21 H4           1.8760    -0.8990    -0.4950 hc         1 4WO       0.026200
     22 H5           3.9970     0.6280     0.8030 ha         1 4WO       0.103000
     23 H6           4.9150     0.6460     3.0850 ha         1 4WO       0.101000
     24 H7           3.4820     0.0290     4.9960 ha         1 4WO       0.107000
     25 H8           0.9720    -1.6160     5.2180 hn         1 4WO       0.272800
     26 H9           0.3690     0.0070     5.2910 hn         1 4WO       0.272800
     27 H10         -0.4370    -1.5770     2.9180 h1         1 4WO       0.018700
     28 H11         -0.8380     0.1120     2.5690 h1         1 4WO       0.018700
     29 H13         -2.2360    -2.0730     1.4080 h1         1 4WO       0.023200
     30 H14         -2.4600    -0.4390     0.7680 h1         1 4WO       0.023200
     31 H15         -1.5230    -2.8500    -0.8280 hc         1 4WO       0.045200
     32 H16         -1.7480    -1.2160    -1.4680 hc         1 4WO       0.045200
     33 H17         -5.9330    -2.0590    -2.1510 h1         1 4WO       0.001033
     34 H18         -5.5840    -3.3990    -3.2510 h1         1 4WO       0.001033
     35 H19         -5.7090    -3.6930    -1.5110 h1         1 4WO       0.001033
@<TRIPOS>BOND
     1     1     2 1   
     2     1    11 1   
     3     1    18 1   
     4     1    19 1   
     5     2     3 1   
     6     2    20 1   
     7     2    21 1   
     8     3     4 ar  
     9     3     9 ar  
    10     4     5 ar  
    11     4    22 1   
    12     5     6 ar  
    13     5    23 1   
    14     6     7 ar  
    15     6    24 1   
    16     7     8 1   
    17     7     9 ar  
    18     8    25 1   
    19     8    26 1   
    20     9    10 1   
    21    10    11 1   
    22    10    27 1   
    23    10    28 1   
    24    11    12 1   
    25    12    13 1   
    26    12    29 1   
    27    12    30 1   
    28    13    14 1   
    29    13    31 1   
    30    13    32 1   
    31    14    15 2   
    32    14    16 1   
    33    16    17 1   
    34    17    33 1   
    35    17    34 1   
    36    17    35 1   
@<TRIPOS>SUBSTRUCTURE
     1 4WO         1 TEMP              0 ****  ****    0 ROOT
