@<TRIPOS>MOLECULE
4WP
   33    34     1     0     0
SMALL
bcc


@<TRIPOS>ATOM
      1 CAJ          0.0000     0.0000     0.0000 c3         1 4WP       0.151800
      2 CAH          1.5300     0.0000     0.0000 c3         1 4WP       0.033900
      3 CAN          2.0440     0.0000     1.4170 ca         1 4WP      -0.071300
      4 CAE          3.3650     0.3560     1.6410 ca         1 4WP      -0.102000
      5 CAC          3.8760     0.3660     2.9230 ca         1 4WP      -0.100000
      6 CAD          3.0680     0.0180     3.9900 ca         1 4WP      -0.104000
      7 CAF          1.7520    -0.3350     3.7680 ca         1 4WP      -0.099000
      8 CAO          1.2360    -0.3430     2.4800 ca         1 4WP      -0.083300
      9 CAK         -0.2090    -0.7240     2.2900 c3         1 4WP       0.207100
     10 NAP         -0.4670    -1.0750     0.8890 n3         1 4WP      -0.543600
     11 CAI         -1.8930    -1.3560     0.6710 c3         1 4WP       0.160800
     12 CAG         -2.2800    -2.6320     1.4220 c3         1 4WP      -0.079400
     13 CAM         -3.7430    -2.9200     1.1980 c          1 4WP       0.693100
     14 OAB         -4.4060    -2.1820     0.5090 o          1 4WP      -0.590000
     15 OAL         -4.3090    -3.9980     1.7640 os         1 4WP      -0.417900
     16 CAA         -5.7210    -4.2130     1.5050 c3         1 4WP       0.269700
     17 H1          -0.3520    -0.1970    -1.0050 h1         1 4WP       0.015200
     18 H2          -0.3520     0.9510     0.3820 h1         1 4WP       0.015200
     19 H3           1.8770     0.8990    -0.4950 hc         1 4WP       0.027700
     20 H4           1.8770    -0.8990    -0.4950 hc         1 4WP       0.027700
     21 H5           3.9990     0.6290     0.8060 ha         1 4WP       0.104000
     22 H6           4.9100     0.6430     3.0930 ha         1 4WP       0.102000
     23 H7           3.4660     0.0240     4.9970 ha         1 4WP       0.102000
     24 H8           1.1190    -0.6080     4.6030 ha         1 4WP       0.103000
     25 H9          -0.4380    -1.5760     2.9180 h1         1 4WP       0.016700
     26 H10         -0.8380     0.1120     2.5690 h1         1 4WP       0.016700
     27 H12         -2.4850    -0.5270     1.0390 h1         1 4WP       0.024200
     28 H13         -2.0770    -1.4900    -0.3880 h1         1 4WP       0.024200
     29 H14         -2.0970    -2.4980     2.4810 hc         1 4WP       0.044700
     30 H15         -1.6880    -3.4610     1.0550 hc         1 4WP       0.044700
     31 H16         -6.0500    -5.1100     2.0170 h1         1 4WP       0.001033
     32 H17         -5.8800    -4.3270     0.4400 h1         1 4WP       0.001033
     33 H18         -6.2880    -3.3630     1.8660 h1         1 4WP       0.001033
@<TRIPOS>BOND
     1     1     2 1   
     2     1    10 1   
     3     1    17 1   
     4     1    18 1   
     5     2     3 1   
     6     2    19 1   
     7     2    20 1   
     8     3     4 ar  
     9     3     8 ar  
    10     4     5 ar  
    11     4    21 1   
    12     5     6 ar  
    13     5    22 1   
    14     6     7 ar  
    15     6    23 1   
    16     7     8 ar  
    17     7    24 1   
    18     8     9 1   
    19     9    10 1   
    20     9    25 1   
    21     9    26 1   
    22    10    11 1   
    23    11    12 1   
    24    11    27 1   
    25    11    28 1   
    26    12    13 1   
    27    12    29 1   
    28    12    30 1   
    29    13    14 2   
    30    13    15 1   
    31    15    16 1   
    32    16    31 1   
    33    16    32 1   
    34    16    33 1   
@<TRIPOS>SUBSTRUCTURE
     1 4WP         1 TEMP              0 ****  ****    0 ROOT
