@<TRIPOS>MOLECULE
molecule
   33    34     1     0     0
SMALL
bcc


@<TRIPOS>ATOM
      1 CAJ          0.0000     0.0000     0.0000 c3         1 4WP       0.161800
      2 CAH          1.5300     0.0000     0.0000 c3         1 4WP      -0.032100
      3 CAN          2.0440     0.0000     1.4170 ca         1 4WP      -0.065300
      4 CAE          3.3650     0.3560     1.6410 ca         1 4WP      -0.128000
      5 CAC          3.8760     0.3660     2.9230 ca         1 4WP      -0.127000
      6 CAD          3.0680     0.0180     3.9900 ca         1 4WP      -0.130000
      7 CAF          1.7520    -0.3350     3.7680 ca         1 4WP      -0.125000
      8 CAO          1.2360    -0.3430     2.4800 ca         1 4WP      -0.076300
      9 CAK         -0.2090    -0.7240     2.2900 c3         1 4WP       0.205100
     10 NAP         -0.4670    -1.0750     0.8890 n3         1 4WP      -0.729600
     11 CAI         -1.8930    -1.3560     0.6710 c3         1 4WP       0.170800
     12 CAG         -2.2800    -2.6320     1.4220 c3         1 4WP      -0.128400
     13 CAM         -3.7430    -2.9200     1.1980 c          1 4WP       0.629100
     14 OAB         -4.4060    -2.1820     0.5090 o          1 4WP      -0.554000
     15 OAL         -4.3090    -3.9980     1.7640 os         1 4WP      -0.429900
     16 CAA         -5.7210    -4.2130     1.5050 c3         1 4WP       0.138700
     17 H1          -0.3520    -0.1970    -1.0050 h1         1 4WP       0.041700
     18 H2          -0.3520     0.9510     0.3820 h1         1 4WP       0.041700
     19 H3           1.8770     0.8990    -0.4950 hc         1 4WP       0.059700
     20 H4           1.8770    -0.8990    -0.4950 hc         1 4WP       0.059700
     21 H5           3.9990     0.6290     0.8060 ha         1 4WP       0.129000
     22 H6           4.9100     0.6430     3.0930 ha         1 4WP       0.129000
     23 H7           3.4660     0.0240     4.9970 ha         1 4WP       0.129000
     24 H8           1.1190    -0.6080     4.6030 ha         1 4WP       0.128000
     25 H9          -0.4380    -1.5760     2.9180 h1         1 4WP       0.044200
     26 H10         -0.8380     0.1120     2.5690 h1         1 4WP       0.044200
     27 H12         -2.4850    -0.5270     1.0390 h1         1 4WP       0.051200
     28 H13         -2.0770    -1.4900    -0.3880 h1         1 4WP       0.051200
     29 H14         -2.0970    -2.4980     2.4810 hc         1 4WP       0.080200
     30 H15         -1.6880    -3.4610     1.0550 hc         1 4WP       0.080200
     31 H16         -6.0500    -5.1100     2.0170 h1         1 4WP       0.049367
     32 H17         -5.8800    -4.3270     0.4400 h1         1 4WP       0.049367
     33 H18         -6.2880    -3.3630     1.8660 h1         1 4WP       0.049367
@<TRIPOS>BOND
     1     6     5 ar  
     2     6     7 ar  
     3     5     4 ar  
     4     7     8 ar  
     5     4     3 ar  
     6     8     3 ar  
     7     8     9 1   
     8     3     2 1   
     9     9    10 1   
    10     2     1 1   
    11    16    15 1   
    12     1    10 1   
    13    10    11 1   
    14    11    12 1   
    15    15    13 1   
    16    13    12 1   
    17    13    14 2   
    18     1    17 1   
    19     1    18 1   
    20     2    19 1   
    21     2    20 1   
    22     4    21 1   
    23     5    22 1   
    24     6    23 1   
    25     7    24 1   
    26     9    25 1   
    27     9    26 1   
    28    11    27 1   
    29    11    28 1   
    30    12    29 1   
    31    12    30 1   
    32    16    31 1   
    33    16    32 1   
    34    16    33 1   
@<TRIPOS>SUBSTRUCTURE
     1 4WP         1 TEMP              0 ****  ****    0 ROOT
