@<TRIPOS>MOLECULE
4WR
   27    27     1     0     0
SMALL
bcc


@<TRIPOS>ATOM
      1 C2           0.0000     0.0000     0.0000 c          1 4WR       0.574500
      2 C4           2.0250     0.0000     1.1640 c          1 4WR       0.549700
      3 C5           1.3110     0.0020     2.3870 cc         1 4WR       0.109300
      4 F5           1.9710     0.0030     3.5660 f          1 4WR      -0.084500
      5 C6          -0.0390    -0.0030     2.3590 cd         1 4WR      -0.241400
      6 O2          -0.6000     0.0040    -1.0580 o          1 4WR      -0.748500
      7 N3           1.3450     0.0000     0.0000 ns         1 4WR      -0.082500
      8 O4           3.2430     0.0040     1.1630 o          1 4WR      -0.500500
      9 N1          -0.6920     0.0020     1.1540 n          1 4WR       0.001000
     10 CAB         -2.1570     0.0090     1.1220 c3         1 4WR       0.048000
     11 CAM         -2.6730    -1.4320     1.1090 c3         1 4WR      -0.106500
     12 NAA         -2.0660    -2.1590    -0.0130 nz         1 4WR       0.034400
     13 CAL         -4.1950    -1.4260     0.9500 c3         1 4WR      -0.048200
     14 NAJ         -4.6780    -2.8070     0.8170 nz         1 4WR       0.068400
     15 H1          -0.6030    -0.0010     3.2840 h4         1 4WR       0.167000
     16 H2           1.8440    -0.0010    -0.8680 hn         1 4WR       0.239500
     17 H3          -2.4960     0.5220     0.2300 h1         1 4WR       0.092200
     18 H4          -2.5350     0.5200     1.9990 h1         1 4WR       0.092200
     19 H5          -2.4090    -1.9180     2.0400 hx         1 4WR       0.110700
     20 H6          -2.2900    -1.6960    -0.8720 hn         1 4WR       0.248467
     21 H7          -2.4230    -3.0940    -0.0370 hn         1 4WR       0.248467
     22 H9          -4.6470    -0.9670     1.8210 hx         1 4WR       0.125700
     23 H10         -4.4640    -0.8620     0.0650 hx         1 4WR       0.125700
     24 H11         -4.1550    -3.4040     1.4270 hn         1 4WR       0.242467
     25 H12         -5.6480    -2.8460     1.0620 hn         1 4WR       0.242467
     26 HAA3        -1.0730    -2.1880     0.1050 hn         1 4WR       0.248467
     27 HAJ3        -4.5510    -3.1150    -0.1260 hn         1 4WR       0.242467
@<TRIPOS>BOND
     1     1     6 2   
     2     1     7 1   
     3     1     9 1   
     4     2     3 1   
     5     2     7 1   
     6     2     8 2   
     7     3     4 1   
     8     3     5 2   
     9     5     9 1   
    10     5    15 1   
    11     7    16 1   
    12     9    10 1   
    13    10    11 1   
    14    10    17 1   
    15    10    18 1   
    16    11    12 1   
    17    11    13 1   
    18    11    19 1   
    19    12    20 1   
    20    12    21 1   
    21    12    26 1   
    22    13    14 1   
    23    13    22 1   
    24    13    23 1   
    25    14    24 1   
    26    14    25 1   
    27    14    27 1   
@<TRIPOS>SUBSTRUCTURE
     1 4WR         1 TEMP              0 ****  ****    0 ROOT
