@<TRIPOS>MOLECULE
molecule
   27    27     1     0     0
SMALL
bcc


@<TRIPOS>ATOM
      1 C2           0.0000     0.0000     0.0000 c          1 4WR       0.795500
      2 C4           2.0250     0.0000     1.1640 c          1 4WR       0.653700
      3 C5           1.3110     0.0020     2.3870 cc         1 4WR       0.096300
      4 F5           1.9710     0.0030     3.5660 f          1 4WR      -0.077500
      5 C6          -0.0390    -0.0030     2.3590 cd         1 4WR      -0.120400
      6 O2          -0.6000     0.0040    -1.0580 o          1 4WR      -0.690500
      7 N3           1.3450     0.0000     0.0000 ns         1 4WR      -0.535500
      8 O4           3.2430     0.0040     1.1630 o          1 4WR      -0.478500
      9 N1          -0.6920     0.0020     1.1540 n          1 4WR      -0.393000
     10 CAB         -2.1570     0.0090     1.1220 c3         1 4WR       0.109000
     11 CAM         -2.6730    -1.4320     1.1090 c3         1 4WR       0.050500
     12 NAA         -2.0660    -2.1590    -0.0130 nz         1 4WR      -0.819600
     13 CAL         -4.1950    -1.4260     0.9500 c3         1 4WR       0.078800
     14 NAJ         -4.6780    -2.8070     0.8170 nz         1 4WR      -0.826600
     15 H1          -0.6030    -0.0010     3.2840 h4         1 4WR       0.192000
     16 H2           1.8440    -0.0010    -0.8680 hn         1 4WR       0.402500
     17 H3          -2.4960     0.5220     0.2300 h1         1 4WR       0.129200
     18 H4          -2.5350     0.5200     1.9990 h1         1 4WR       0.129200
     19 H5          -2.4090    -1.9180     2.0400 hx         1 4WR       0.138700
     20 H6          -2.2900    -1.6960    -0.8720 hn         1 4WR       0.473800
     21 H7          -2.4230    -3.0940    -0.0370 hn         1 4WR       0.473800
     22 H9          -4.6470    -0.9670     1.8210 hx         1 4WR       0.158700
     23 H10         -4.4640    -0.8620     0.0650 hx         1 4WR       0.158700
     24 H11         -4.1550    -3.4040     1.4270 hn         1 4WR       0.476133
     25 H12         -5.6480    -2.8460     1.0620 hn         1 4WR       0.476133
     26 HAA3        -1.0730    -2.1880     0.1050 hn         1 4WR       0.473800
     27 HAJ3        -4.5510    -3.1150    -0.1260 hn         1 4WR       0.476133
@<TRIPOS>BOND
     1     4     3 1
     2     8     2 2
     3     2     3 1
     4     2     7 1
     5     3     5 2
     6     7     1 1
     7     5     9 1
     8     1     9 1
     9     1     6 2
    10     9    10 1
    11    13    14 1
    12    13    11 1
    13    10    11 1
    14    11    12 1
    15     5    15 1
    16     7    16 1
    17    10    17 1
    18    10    18 1
    19    11    19 1
    20    12    20 1
    21    12    21 1
    22    13    22 1
    23    13    23 1
    24    14    24 1
    25    14    25 1
    26    26    12 1
    27    27    14 1
@<TRIPOS>SUBSTRUCTURE
     1 4WR         1 TEMP              0 ****  ****    0 ROOT
