@<TRIPOS>MOLECULE
molecule
   34    35     1     0     0
SMALL
bcc


@<TRIPOS>ATOM
      1 O25          0.0000     0.0000     0.0000 o          1 4WS      -0.616100
      2 C29          1.2120     0.0000     0.0000 c          1 4WS       0.655100
      3 C30          1.9660     0.0000     1.3050 c3         1 4WS      -0.171100
      4 N22          1.8860    -0.0070    -1.1670 ns         1 4WS      -0.576900
      5 C28          1.1540    -0.0130    -2.4360 c3         1 4WS       0.130000
      6 C27          2.1480    -0.0190    -3.5990 c3         1 4WS       0.118500
      7 N21          3.0780    -1.1540    -3.4570 n3         1 4WS      -0.681600
      8 C26          4.4760    -0.6580    -3.5170 c3         1 4WS       0.135800
      9 C25          5.2770    -1.8800    -4.0270 c3         1 4WS      -0.111400
     10 C21          1.3930    -0.2040    -4.9320 c3         1 4WS       0.099100
     11 C22          2.3400    -1.1270    -5.7430 c3         1 4WS       0.116100
     12 O22          1.6080    -1.8880    -6.7090 oh         1 4WS      -0.597800
     13 C23          2.9110    -2.0430    -4.6350 c3         1 4WS       0.150500
     14 C24          4.3110    -2.5230    -5.0480 c3         1 4WS       0.140100
     15 O24          4.6180    -2.0780    -6.3700 oh         1 4WS      -0.606800
     16 O21          1.2220     1.0500    -5.5940 oh         1 4WS      -0.601800
     17 H3           2.5190    -0.9260     1.4020 hc         1 4WS       0.059033
     18 H4           1.2650     0.0900     2.1270 hc         1 4WS       0.059033
     19 H5           2.6550     0.8360     1.3240 hc         1 4WS       0.059033
     20 H6           2.8860     0.0390    -1.1670 hn         1 4WS       0.316500
     21 H8           0.5310    -0.8980    -2.4880 h1         1 4WS       0.056200
     22 H9           0.5310     0.8710    -2.4970 h1         1 4WS       0.056200
     23 H10          2.7040     0.9100    -3.6190 h1         1 4WS       0.071700
     24 H12          4.5560     0.1660    -4.2140 h1         1 4WS       0.049200
     25 H13          4.8170    -0.3660    -2.5310 h1         1 4WS       0.049200
     26 H14          5.4870    -2.5660    -3.2150 hc         1 4WS       0.060700
     27 H15          6.1910    -1.5610    -4.5150 hc         1 4WS       0.060700
     28 H16          0.4390    -0.6900    -4.7650 h1         1 4WS       0.064700
     29 H17          3.1290    -0.5520    -6.2110 h1         1 4WS       0.083700
     30 H18          1.6330    -1.4460    -7.5410 ho         1 4WS       0.410000
     31 H19          2.2490    -2.8730    -4.4190 h1         1 4WS       0.099700
     32 H20          4.3690    -3.6030    -4.9860 h1         1 4WS       0.047700
     33 H21          5.1480    -2.7260    -6.8050 ho         1 4WS       0.407000
     34 H2           0.3150     1.1640    -5.8220 ho         1 4WS       0.409000
@<TRIPOS>BOND
     1    16    10 1   
     2     4     5 1   
     3     4     2 1   
     4     5     6 1   
     5    10     6 1   
     6    10    11 1   
     7     6     7 1   
     8     3     2 1   
     9     2     1 2   
    10    11    12 1   
    11    11    13 1   
    12     7    13 1   
    13     7     8 1   
    14    13    14 1   
    15     8     9 1   
    16    15    14 1   
    17    14     9 1   
    18     3    17 1   
    19     3    18 1   
    20     3    19 1   
    21     4    20 1   
    22     5    21 1   
    23     5    22 1   
    24     6    23 1   
    25     8    24 1   
    26     8    25 1   
    27     9    26 1   
    28     9    27 1   
    29    10    28 1   
    30    11    29 1   
    31    12    30 1   
    32    13    31 1   
    33    14    32 1   
    34    15    33 1   
    35    16    34 1   
@<TRIPOS>SUBSTRUCTURE
     1 4WS         1 TEMP              0 ****  ****    0 ROOT
