@<TRIPOS>MOLECULE
molecule
   27    28     1     0     0
SMALL
bcc


@<TRIPOS>ATOM
      1 CAH          0.0000     0.0000     0.0000 c3         1 4WT       0.162800
      2 NAI          1.4720     0.0000     0.0000 n7         1 4WT      -0.812200
      3 CAG          1.9800     0.0000     1.3750 c3         1 4WT       0.203100
      4 CAJ          1.3580    -1.1190     2.1680 ca         1 4WT      -0.075300
      5 CAE          1.9680    -1.5110     3.3490 ca         1 4WT      -0.127000
      6 CAC          1.4300    -2.5300     4.1100 ca         1 4WT      -0.130000
      7 CAD          0.2760    -3.1650     3.6910 ca         1 4WT      -0.129000
      8 CAF         -0.3330    -2.7770     2.5140 ca         1 4WT      -0.126000
      9 CAK          0.2080    -1.7550     1.7490 ca         1 4WT      -0.053300
     10 CAL         -0.4860    -1.3730     0.4670 c3         1 4WT      -0.013700
     11 CAB         -1.9960    -1.3210     0.7020 c3         1 4WT      -0.078100
     12 CAA         -0.1750    -2.4140    -0.6100 c3         1 4WT      -0.078100
     13 H1          -0.3630     0.7630     0.6780 h1         1 4WT       0.036200
     14 H2          -0.3630     0.1920    -1.0020 h1         1 4WT       0.036200
     15 H3           1.8060     0.8130    -0.4790 hn         1 4WT       0.353800
     16 H5           1.7160     0.9420     1.8410 h1         1 4WT       0.043200
     17 H6           3.0530    -0.1520     1.3470 h1         1 4WT       0.043200
     18 H7           2.8720    -1.0140     3.6790 ha         1 4WT       0.127000
     19 H8           1.9110    -2.8310     5.0330 ha         1 4WT       0.128000
     20 H9          -0.1500    -3.9650     4.2840 ha         1 4WT       0.128000
     21 H10         -1.2370    -3.2750     2.1850 ha         1 4WT       0.131000
     22 H11         -2.2010    -0.7780     1.6160 hc         1 4WT       0.038200
     23 H12         -2.3830    -2.3300     0.7880 hc         1 4WT       0.038200
     24 H13         -2.4750    -0.8210    -0.1310 hc         1 4WT       0.038200
     25 H14          0.8990    -2.5110    -0.7200 hc         1 4WT       0.038200
     26 H15         -0.5960    -3.3690    -0.3220 hc         1 4WT       0.038200
     27 H16         -0.6070    -2.0990    -1.5530 hc         1 4WT       0.038200
@<TRIPOS>BOND
     1     7     6 ar  
     2     7     8 ar  
     3     6     5 ar  
     4     8     9 ar  
     5     5     4 ar  
     6    11    10 1   
     7     9     4 ar  
     8     9    10 1   
     9     4     3 1   
    10    10    12 1   
    11    10     1 1   
    12     3     2 1   
    13     1     2 1   
    14     1    13 1   
    15     1    14 1   
    16     2    15 1   
    17     3    16 1   
    18     3    17 1   
    19     5    18 1   
    20     6    19 1   
    21     7    20 1   
    22     8    21 1   
    23    11    22 1   
    24    11    23 1   
    25    11    24 1   
    26    12    25 1   
    27    12    26 1   
    28    12    27 1   
@<TRIPOS>SUBSTRUCTURE
     1 4WT         1 TEMP              0 ****  ****    0 ROOT
