@<TRIPOS>MOLECULE
4WT
   27    28     1     0     0
SMALL
bcc


@<TRIPOS>ATOM
      1 CAH          0.0000     0.0000     0.0000 c3         1 4WT       0.146800
      2 NAI          1.4720     0.0000     0.0000 n7         1 4WT      -0.576200
      3 CAG          1.9800     0.0000     1.3750 c3         1 4WT       0.206100
      4 CAJ          1.3580    -1.1190     2.1680 ca         1 4WT      -0.080300
      5 CAE          1.9680    -1.5110     3.3490 ca         1 4WT      -0.101000
      6 CAC          1.4300    -2.5300     4.1100 ca         1 4WT      -0.103000
      7 CAD          0.2760    -3.1650     3.6910 ca         1 4WT      -0.103000
      8 CAF         -0.3330    -2.7770     2.5140 ca         1 4WT      -0.104000
      9 CAK          0.2080    -1.7550     1.7490 ca         1 4WT      -0.059300
     10 CAL         -0.4860    -1.3730     0.4670 c3         1 4WT      -0.005700
     11 CAB         -1.9960    -1.3210     0.7020 c3         1 4WT       0.007400
     12 CAA         -0.1750    -2.4140    -0.6100 c3         1 4WT       0.007400
     13 H1          -0.3630     0.7630     0.6780 h1         1 4WT       0.011700
     14 H2          -0.3630     0.1920    -1.0020 h1         1 4WT       0.011700
     15 H3           1.8060     0.8130    -0.4790 hn         1 4WT       0.250800
     16 H5           1.7160     0.9420     1.8410 h1         1 4WT       0.013200
     17 H6           3.0530    -0.1520     1.3470 h1         1 4WT       0.013200
     18 H7           2.8720    -1.0140     3.6790 ha         1 4WT       0.103000
     19 H8           1.9110    -2.8310     5.0330 ha         1 4WT       0.101000
     20 H9          -0.1500    -3.9650     4.2840 ha         1 4WT       0.101000
     21 H10         -1.2370    -3.2750     2.1850 ha         1 4WT       0.111000
     22 H11         -2.2010    -0.7780     1.6160 hc         1 4WT       0.008033
     23 H12         -2.3830    -2.3300     0.7880 hc         1 4WT       0.008033
     24 H13         -2.4750    -0.8210    -0.1310 hc         1 4WT       0.008033
     25 H14          0.8990    -2.5110    -0.7200 hc         1 4WT       0.008033
     26 H15         -0.5960    -3.3690    -0.3220 hc         1 4WT       0.008033
     27 H16         -0.6070    -2.0990    -1.5530 hc         1 4WT       0.008033
@<TRIPOS>BOND
     1     1     2 1   
     2     1    10 1   
     3     1    13 1   
     4     1    14 1   
     5     2     3 1   
     6     2    15 1   
     7     3     4 1   
     8     3    16 1   
     9     3    17 1   
    10     4     5 ar  
    11     4     9 ar  
    12     5     6 ar  
    13     5    18 1   
    14     6     7 ar  
    15     6    19 1   
    16     7     8 ar  
    17     7    20 1   
    18     8     9 ar  
    19     8    21 1   
    20     9    10 1   
    21    10    11 1   
    22    10    12 1   
    23    11    22 1   
    24    11    23 1   
    25    11    24 1   
    26    12    25 1   
    27    12    26 1   
    28    12    27 1   
@<TRIPOS>SUBSTRUCTURE
     1 4WT         1 TEMP              0 ****  ****    0 ROOT
