@<TRIPOS>MOLECULE
4WU
   23    24     1     0     0
SMALL
bcc


@<TRIPOS>ATOM
      1 CAF          0.0000     0.0000     0.0000 c3         1 4WU       0.035900
      2 CAE          1.5290     0.0000     0.0000 c3         1 4WU       0.142800
      3 NAH          1.9970     0.0000     1.3960 n7         1 4WU      -0.574200
      4 CAG          1.7380     1.3030     2.0170 c3         1 4WU       0.214100
      5 CAK          0.2950     1.6950     1.8410 ca         1 4WU      -0.153300
      6 CAJ         -0.5140     1.0930     0.9020 ca         1 4WU      -0.027300
      7 CAD         -1.8360     1.4900     0.7710 ca         1 4WU      -0.157000
      8 CAB         -2.3530     2.4850     1.5780 ca         1 4WU      -0.056000
      9 CAC         -1.5490     3.0890     2.5250 ca         1 4WU      -0.181000
     10 CAI         -0.2250     2.6980     2.6570 ca         1 4WU       0.055600
     11 NAA          0.5890     3.3080     3.6140 nv         1 4WU      -0.472200
     12 H1          -0.3580     0.1700    -1.0080 hc         1 4WU       0.024700
     13 H2          -0.3580    -0.9580     0.3580 hc         1 4WU       0.024700
     14 H3           1.8920    -0.8870    -0.5050 h1         1 4WU       0.006200
     15 H4           1.8920     0.8870    -0.5050 h1         1 4WU       0.006200
     16 H5           2.9790    -0.1910     1.4180 hn         1 4WU       0.248800
     17 H7           1.9480     1.2280     3.0770 h1         1 4WU       0.008700
     18 H8           2.3590     2.0460     1.5320 h1         1 4WU       0.008700
     19 H9          -2.4680     1.0170     0.0300 ha         1 4WU       0.105000
     20 H10         -3.3880     2.7880     1.4720 ha         1 4WU       0.098000
     21 H11         -1.9500     3.8700     3.1600 ha         1 4WU       0.107000
     22 H12          1.5760     3.3770     3.4600 hn         1 4WU       0.267800
     23 H13          0.1840     3.6890     4.4460 hn         1 4WU       0.267800
@<TRIPOS>BOND
     1     1     2 1   
     2     1     6 1   
     3     1    12 1   
     4     1    13 1   
     5     2     3 1   
     6     2    14 1   
     7     2    15 1   
     8     3     4 1   
     9     3    16 1   
    10     4     5 1   
    11     4    17 1   
    12     4    18 1   
    13     5     6 ar  
    14     5    10 ar  
    15     6     7 ar  
    16     7     8 ar  
    17     7    19 1   
    18     8     9 ar  
    19     8    20 1   
    20     9    10 ar  
    21     9    21 1   
    22    10    11 1   
    23    11    22 1   
    24    11    23 1   
@<TRIPOS>SUBSTRUCTURE
     1 4WU         1 TEMP              0 ****  ****    0 ROOT
