@<TRIPOS>MOLECULE
molecule
   23    24     1     0     0
SMALL
bcc


@<TRIPOS>ATOM
      1 CAF          0.0000     0.0000     0.0000 c3         1 4WU      -0.029100
      2 CAE          1.5290     0.0000     0.0000 c3         1 4WU       0.153800
      3 NAH          1.9970     0.0000     1.3960 n7         1 4WU      -0.809200
      4 CAG          1.7380     1.3030     2.0170 c3         1 4WU       0.210100
      5 CAK          0.2950     1.6950     1.8410 ca         1 4WU      -0.143300
      6 CAJ         -0.5140     1.0930     0.9020 ca         1 4WU      -0.025300
      7 CAD         -1.8360     1.4900     0.7710 ca         1 4WU      -0.178000
      8 CAB         -2.3530     2.4850     1.5780 ca         1 4WU      -0.088000
      9 CAC         -1.5490     3.0890     2.5250 ca         1 4WU      -0.201000
     10 CAI         -0.2250     2.6980     2.6570 ca         1 4WU       0.199600
     11 NAA          0.5890     3.3080     3.6140 nv         1 4WU      -0.936200
     12 H1          -0.3580     0.1700    -1.0080 hc         1 4WU       0.057200
     13 H2          -0.3580    -0.9580     0.3580 hc         1 4WU       0.057200
     14 H3           1.8920    -0.8870    -0.5050 h1         1 4WU       0.033200
     15 H4           1.8920     0.8870    -0.5050 h1         1 4WU       0.033200
     16 H5           2.9790    -0.1910     1.4180 hn         1 4WU       0.351800
     17 H7           1.9480     1.2280     3.0770 h1         1 4WU       0.038200
     18 H8           2.3590     2.0460     1.5320 h1         1 4WU       0.038200
     19 H9          -2.4680     1.0170     0.0300 ha         1 4WU       0.127000
     20 H10         -3.3880     2.7880     1.4720 ha         1 4WU       0.127000
     21 H11         -1.9500     3.8700     3.1600 ha         1 4WU       0.128000
     22 H12          1.5760     3.3770     3.4600 hn         1 4WU       0.427800
     23 H13          0.1840     3.6890     4.4460 hn         1 4WU       0.427800
@<TRIPOS>BOND
     1     9     8 ar
     2     9    10 ar
     3     8     7 ar
     4    11    10 1
     5    10     5 ar
     6     7     6 ar
     7     5     6 ar
     8     5     4 1
     9     6     1 1
    10     4     3 1
    11     1     2 1
    12     2     3 1
    13     1    12 1
    14     1    13 1
    15     2    14 1
    16     2    15 1
    17     3    16 1
    18     4    17 1
    19     4    18 1
    20     7    19 1
    21     8    20 1
    22     9    21 1
    23    11    22 1
    24    11    23 1
@<TRIPOS>SUBSTRUCTURE
     1 4WU         1 TEMP              0 ****  ****    0 ROOT
