@<TRIPOS>MOLECULE
molecule
   33    34     1     0     0
SMALL
bcc


@<TRIPOS>ATOM
      1 CAJ          0.0000     0.0000     0.0000 c3         1 4X1       0.160800
      2 CAH          1.5290     0.0000     0.0000 c3         1 4X1      -0.029100
      3 CAL          2.0430     0.0000     1.4170 ca         1 4X1      -0.067300
      4 CAD          3.3650    -0.3550     1.6400 ca         1 4X1      -0.121000
      5 CAB          3.8770    -0.3630     2.9220 ca         1 4X1      -0.112000
      6 CAC          3.0690    -0.0140     3.9880 ca         1 4X1      -0.121000
      7 CAE          1.7530     0.3380     3.7670 ca         1 4X1      -0.125000
      8 CAM          1.2360     0.3450     2.4800 ca         1 4X1      -0.091300
      9 CAK         -0.2090     0.7260     2.2900 c3         1 4X1       0.209100
     10 NAN         -0.4670     1.0760     0.8890 n3         1 4X1      -0.722600
     11 CAI         -1.8930     1.3580     0.6720 c3         1 4X1       0.171800
     12 CAG         -2.2810     2.6330     1.4220 c3         1 4X1      -0.114400
     13 CAF         -3.7650     2.9250     1.1950 c3         1 4X1       0.089800
     14 NAA         -4.1380     4.1510     1.9150 nz         1 4X1      -0.809600
     15 H1          -0.3520    -0.9510     0.3820 h1         1 4X1       0.046200
     16 H2          -0.3520     0.1960    -1.0050 h1         1 4X1       0.046200
     17 H3           1.8760    -0.8990    -0.4950 hc         1 4X1       0.068700
     18 H4           1.8760     0.8990    -0.4960 hc         1 4X1       0.068700
     19 H5           3.9990    -0.6280     0.8050 ha         1 4X1       0.139000
     20 H6           4.9110    -0.6400     3.0920 ha         1 4X1       0.141000
     21 H7           3.4680    -0.0200     4.9950 ha         1 4X1       0.139000
     22 H8           1.1200     0.6110     4.6030 ha         1 4X1       0.124000
     23 H9          -0.8380    -0.1100     2.5700 h1         1 4X1       0.036200
     24 H10         -0.4380     1.5780     2.9180 h1         1 4X1       0.036200
     25 H12         -2.0770     1.4910    -0.3880 h1         1 4X1       0.046200
     26 H13         -2.4850     0.5280     1.0390 h1         1 4X1       0.046200
     27 H14         -2.0970     2.5000     2.4810 hc         1 4X1       0.074700
     28 H15         -1.6900     3.4630     1.0540 hc         1 4X1       0.074700
     29 H16         -4.3570     2.0950     1.5630 hx         1 4X1       0.111700
     30 H17         -3.9500     3.0580     0.1360 hx         1 4X1       0.111700
     31 H18         -3.5960     4.9180     1.5710 hn         1 4X1       0.457800
     32 H19         -5.1110     4.3390     1.7730 hn         1 4X1       0.457800
     33 HAA3        -3.9620     4.0290     2.8930 hn         1 4X1       0.457800
@<TRIPOS>BOND
     1     5     6 ar  
     2     5     4 ar  
     3     6     7 ar  
     4     4     3 ar  
     5     7     8 ar  
     6     3     8 ar  
     7     3     2 1   
     8     8     9 1   
     9     2     1 1   
    10     1    10 1   
    11     9    10 1   
    12    10    11 1   
    13    11    12 1   
    14    12    13 1   
    15    13    14 1   
    16     1    15 1   
    17     1    16 1   
    18     2    17 1   
    19     2    18 1   
    20     4    19 1   
    21     5    20 1   
    22     6    21 1   
    23     7    22 1   
    24     9    23 1   
    25     9    24 1   
    26    11    25 1   
    27    11    26 1   
    28    12    27 1   
    29    12    28 1   
    30    13    29 1   
    31    13    30 1   
    32    14    31 1   
    33    14    32 1   
    34    33    14 1   
@<TRIPOS>SUBSTRUCTURE
     1 4X1         1 TEMP              0 ****  ****    0 ROOT
