@<TRIPOS>MOLECULE
4X1
   33    34     1     0     0
SMALL
bcc


@<TRIPOS>ATOM
      1 CAJ          0.0000     0.0000     0.0000 c3         1 4X1       0.153800
      2 CAH          1.5290     0.0000     0.0000 c3         1 4X1       0.037900
      3 CAL          2.0430     0.0000     1.4170 ca         1 4X1      -0.074300
      4 CAD          3.3650    -0.3550     1.6400 ca         1 4X1      -0.093000
      5 CAB          3.8770    -0.3630     2.9220 ca         1 4X1      -0.083000
      6 CAC          3.0690    -0.0140     3.9880 ca         1 4X1      -0.093000
      7 CAE          1.7530     0.3380     3.7670 ca         1 4X1      -0.098000
      8 CAM          1.2360     0.3450     2.4800 ca         1 4X1      -0.102300
      9 CAK         -0.2090     0.7260     2.2900 c3         1 4X1       0.216100
     10 NAN         -0.4670     1.0760     0.8890 n3         1 4X1      -0.538600
     11 CAI         -1.8930     1.3580     0.6720 c3         1 4X1       0.166800
     12 CAG         -2.2810     2.6330     1.4220 c3         1 4X1      -0.048400
     13 CAF         -3.7650     2.9250     1.1950 c3         1 4X1      -0.052200
     14 NAA         -4.1380     4.1510     1.9150 nz         1 4X1       0.087400
     15 H1          -0.3520    -0.9510     0.3820 h1         1 4X1       0.018200
     16 H2          -0.3520     0.1960    -1.0050 h1         1 4X1       0.018200
     17 H3           1.8760    -0.8990    -0.4950 hc         1 4X1       0.034200
     18 H4           1.8760     0.8990    -0.4960 hc         1 4X1       0.034200
     19 H5           3.9990    -0.6280     0.8050 ha         1 4X1       0.112000
     20 H6           4.9110    -0.6400     3.0920 ha         1 4X1       0.111000
     21 H7           3.4680    -0.0200     4.9950 ha         1 4X1       0.110000
     22 H8           1.1200     0.6110     4.6030 ha         1 4X1       0.099000
     23 H9          -0.8380    -0.1100     2.5700 h1         1 4X1       0.008200
     24 H10         -0.4380     1.5780     2.9180 h1         1 4X1       0.008200
     25 H12         -2.0770     1.4910    -0.3880 h1         1 4X1       0.018700
     26 H13         -2.4850     0.5280     1.0390 h1         1 4X1       0.018700
     27 H14         -2.0970     2.5000     2.4810 hc         1 4X1       0.043700
     28 H15         -1.6900     3.4630     1.0540 hc         1 4X1       0.043700
     29 H16         -4.3570     2.0950     1.5630 hx         1 4X1       0.084700
     30 H17         -3.9500     3.0580     0.1360 hx         1 4X1       0.084700
     31 H18         -3.5960     4.9180     1.5710 hn         1 4X1       0.223800
     32 H19         -5.1110     4.3390     1.7730 hn         1 4X1       0.223800
     33 HAA3        -3.9620     4.0290     2.8930 hn         1 4X1       0.223800
@<TRIPOS>BOND
     1     1     2 1   
     2     1    10 1   
     3     1    15 1   
     4     1    16 1   
     5     2     3 1   
     6     2    17 1   
     7     2    18 1   
     8     3     4 ar  
     9     3     8 ar  
    10     4     5 ar  
    11     4    19 1   
    12     5     6 ar  
    13     5    20 1   
    14     6     7 ar  
    15     6    21 1   
    16     7     8 ar  
    17     7    22 1   
    18     8     9 1   
    19     9    10 1   
    20     9    23 1   
    21     9    24 1   
    22    10    11 1   
    23    11    12 1   
    24    11    25 1   
    25    11    26 1   
    26    12    13 1   
    27    12    27 1   
    28    12    28 1   
    29    13    14 1   
    30    13    29 1   
    31    13    30 1   
    32    14    31 1   
    33    14    32 1   
    34    14    33 1   
@<TRIPOS>SUBSTRUCTURE
     1 4X1         1 TEMP              0 ****  ****    0 ROOT
