@<TRIPOS>MOLECULE
4X2
   34    35     1     0     0
SMALL
bcc


@<TRIPOS>ATOM
      1 N12          0.0000     0.0000     0.0000 na         1 4X2       0.336100
      2 C13          1.3680     0.0000     0.0000 cc         1 4X2      -0.110200
      3 C15          3.5740    -0.0010     0.6640 cd         1 4X2       0.307800
      4 C17          3.1400    -0.0000    -1.6450 c          1 4X2       0.541000
      5 C21         -0.4100    -0.0000    -1.3000 cc         1 4X2       0.201400
      6 O01          1.7930     6.0160     0.6900 o          1 4X2      -0.747167
      7 P02          1.8110     5.6450     2.2570 p5         1 4X2       0.432700
      8 O03          3.1920     6.1470     2.9120 o          1 4X2      -0.747167
      9 O04          0.6750     6.3150     2.9270 o          1 4X2      -0.747167
     10 C05          1.6600     3.8400     2.4640 c3         1 4X2      -0.038600
     11 O07          0.1750     1.9650     2.1170 os         1 4X2      -0.421600
     12 C08         -1.0730     1.4300     1.6690 c3         1 4X2       0.150100
     13 C09         -2.0750     1.4380     2.8240 c3         1 4X2       0.195400
     14 O10         -1.6280     0.5470     3.8490 oh         1 4X2      -0.581800
     15 C11         -0.8670    -0.0050     1.1820 c3         1 4X2      -0.061700
     16 N14          2.3040     0.0000     0.9590 nc         1 4X2      -0.455100
     17 N16          4.0180    -0.0010    -0.6180 ns         1 4X2      -0.007400
     18 O18          3.5290    -0.0010    -2.8010 o          1 4X2      -0.702500
     19 C19          1.7560    -0.0010    -1.3430 cd         1 4X2       0.164800
     20 N20          0.6260    -0.0010    -2.0880 nd         1 4X2      -0.543000
     21 H1           4.2990    -0.0020     1.4690 h5         1 4X2       0.004800
     22 H2          -1.4420    -0.0010    -1.6270 h5         1 4X2       0.013100
     23 H5           1.7590     3.5870     3.5120 hc         1 4X2      -0.003800
     24 H6           2.4410     3.3450     1.8980 hc         1 4X2      -0.003800
     25 H7           0.1940     3.6320     0.9050 h1         1 4X2      -0.000300
     26 H8          -0.4880     3.8750     2.5200 h1         1 4X2      -0.000300
     27 H9          -1.4540     2.0360     0.8560 h1         1 4X2       0.019700
     28 H10         -2.1540     2.4400     3.2270 h1         1 4X2      -0.011300
     29 H11         -3.0440     1.1160     2.4640 h1         1 4X2      -0.011300
     30 H12         -2.2290     0.5760     4.5740 ho         1 4X2       0.368000
     31 H13         -0.4030    -0.5900     1.9670 h1         1 4X2       0.036700
     32 H14         -1.8250    -0.4400     0.9250 h1         1 4X2       0.036700
     33 H15          5.0020    -0.0020    -0.8030 hn         1 4X2       0.169500
     34 C06          0.2920     3.3800     1.9540 c3         1 4X2       0.219400
@<TRIPOS>BOND
     1     1     2 1   
     2     1     5 1   
     3     1    15 1   
     4     2    16 1   
     5     2    19 2   
     6     3    16 2   
     7     3    17 1   
     8     3    21 1   
     9     4    17 1   
    10     4    18 2   
    11     4    19 1   
    12     5    20 2   
    13     5    22 1   
    14     6     7 1   
    15     7     8 1   
    16     7     9 1   
    17     7    10 1   
    18    10    23 1   
    19    10    24 1   
    20    10    34 1   
    21    11    12 1   
    22    11    34 1   
    23    12    13 1   
    24    12    15 1   
    25    12    27 1   
    26    13    14 1   
    27    13    28 1   
    28    13    29 1   
    29    14    30 1   
    30    15    31 1   
    31    15    32 1   
    32    17    33 1   
    33    19    20 1   
    34    25    34 1   
    35    26    34 1   
@<TRIPOS>SUBSTRUCTURE
     1 4X2         1 TEMP              0 ****  ****    0 ROOT
