@<TRIPOS>MOLECULE
molecule
   29    30     1     0     0
SMALL
bcc


@<TRIPOS>ATOM
      1 CAH          0.0000     0.0000     0.0000 c3         1 4X3       0.159800
      2 CAG          1.5290     0.0000     0.0000 c3         1 4X3      -0.026100
      3 CAL          2.0430     0.0000     1.4180 ca         1 4X3      -0.123300
      4 CAJ          3.3710    -0.3560     1.6420 ca         1 4X3       0.189600
      5 NAB          4.1880    -0.7090     0.5670 nv         1 4X3      -0.944200
      6 CAD          3.8820    -0.3620     2.9320 ca         1 4X3      -0.189000
      7 CAC          3.0700    -0.0130     3.9930 ca         1 4X3      -0.098000
      8 CAE          1.7530     0.3380     3.7670 ca         1 4X3      -0.168000
      9 CAK          1.2360     0.3440     2.4800 ca         1 4X3      -0.043300
     10 CAI         -0.2090     0.7260     2.2900 c3         1 4X3       0.208100
     11 NAM         -0.4680     1.0750     0.8900 n3         1 4X3      -0.725600
     12 CAF         -1.8920     1.3570     0.6720 c3         1 4X3       0.159800
     13 CAA         -2.2820     2.6320     1.4230 c3         1 4X3      -0.094100
     14 H1          -0.3520     0.1970    -1.0050 h1         1 4X3       0.037700
     15 H2          -0.3520    -0.9510     0.3810 h1         1 4X3       0.037700
     16 H3           1.8760    -0.8990    -0.4950 hc         1 4X3       0.054700
     17 H4           1.8760     0.8990    -0.4950 hc         1 4X3       0.054700
     18 H5           4.8610    -1.4430     0.6700 hn         1 4X3       0.427800
     19 H6           4.1150    -0.2150    -0.3000 hn         1 4X3       0.427800
     20 H7           4.9150    -0.6380     3.1060 ha         1 4X3       0.129000
     21 H8           3.4650    -0.0160     5.0020 ha         1 4X3       0.127000
     22 H9           1.1200     0.6110     4.6020 ha         1 4X3       0.126000
     23 H10         -0.4370     1.5780     2.9180 h1         1 4X3       0.045200
     24 H11         -0.8380    -0.1110     2.5700 h1         1 4X3       0.045200
     25 H13         -2.0760     1.4910    -0.3870 h1         1 4X3       0.031700
     26 H14         -2.4840     0.5270     1.0390 h1         1 4X3       0.031700
     27 H15         -2.4910     2.3910     2.4580 hc         1 4X3       0.039700
     28 H16         -3.1640     3.0640     0.9670 hc         1 4X3       0.039700
     29 H17         -1.4660     3.3420     1.3760 hc         1 4X3       0.039700
@<TRIPOS>BOND
     1     6     7 ar  
     2     6     4 ar  
     3     7     8 ar  
     4     5     4 1   
     5     4     3 ar  
     6     8     9 ar  
     7     3     9 ar  
     8     3     2 1   
     9     9    10 1   
    10     2     1 1   
    11    10    11 1   
    12     1    11 1   
    13    11    12 1   
    14    12    13 1   
    15     1    14 1   
    16     1    15 1   
    17     2    16 1   
    18     2    17 1   
    19     5    18 1   
    20     5    19 1   
    21     6    20 1   
    22     7    21 1   
    23     8    22 1   
    24    10    23 1   
    25    10    24 1   
    26    12    25 1   
    27    12    26 1   
    28    13    27 1   
    29    13    28 1   
    30    13    29 1   
@<TRIPOS>SUBSTRUCTURE
     1 4X3         1 TEMP              0 ****  ****    0 ROOT
