@<TRIPOS>MOLECULE
4X4
   47    49     1     0     0
SMALL
bcc


@<TRIPOS>ATOM
      1 N1         -0.7900    1.3850   -1.2120 nh        1 4X4     -0.210000
      2 O1          2.8810    2.2070   -7.8790 os        1 4X4      0.003000
      3 C2          0.3920    0.9420   -0.8390 c2        1 4X4      0.265000
      4 N2          2.0640    0.0800    0.5360 na        1 4X4     -0.109000
      5 O2          1.5050    3.3380   -4.7780 o         1 4X4     -0.366000
      6 C3          0.7040    0.4580    0.5500 c2        1 4X4      0.044000
      7 N3          4.9920   -0.0560   -1.6530 n2        1 4X4     -0.168000
      8 C4         -0.1590    0.4200    1.5400 c1        1 4X4     -0.158000
      9 N4          2.8370    1.4980   -5.1380 n         1 4X4     -0.367000
     10 C5         -1.0440    0.3930    2.4940 c2        1 4X4     -0.101000
     11 C6         -2.1560   -0.5400    2.5720 c1        1 4X4      0.078000
     12 C7          1.6170    0.8330   -1.6620 c2        1 4X4     -0.106000
     13 C8          2.6400    0.3040   -0.7710 c2        1 4X4     -0.091000
     14 C10         3.0070   -0.4080    1.4050 c2        1 4X4      0.102000
     15 C11         4.2200   -0.5240    0.6930 c2        1 4X4     -0.256000
     16 C12         3.9810   -0.0670   -0.6930 c2        1 4X4      0.033000
     17 C14         6.1630   -0.4700   -1.2640 c2        1 4X4     -0.023000
     18 C15         6.5350   -0.9560    0.1050 c3        1 4X4     -0.249000
     19 C16         5.4790   -0.9750    1.1240 c1        1 4X4     -0.007000
     20 C17         1.6940    1.1750   -2.9660 c2        1 4X4      0.009000
     21 C18         2.9560    1.1190   -3.7570 c3        1 4X4     -0.012000
     22 C20         2.2000    2.6470   -5.5520 c2        1 4X4      0.343000
     23 C21         2.3370    3.0220   -6.9800 c2        1 4X4     -0.004000
     24 C22         1.9220    4.2900   -7.6440 c3        1 4X4     -0.177000
     25 C23         2.3330    4.0370   -9.0640 c2        1 4X4     -0.325000
     26 C24         2.9040    2.7740   -9.1610 c1        1 4X4     -0.091000
     27 C28        -1.2990   -2.0280    4.2600 c3        1 4X4     -0.160000
     28 H4         -1.1430    1.2640    3.1860 ha        1 4X4      0.208000
     29 HN4         3.7110    1.7920   -3.2390 h1        1 4X4      0.153500
     30 H5         -1.5590    1.4110   -0.5690 hn        1 4X4      0.283000
     31 H10         2.7950   -0.6450    2.4530 h4        1 4X4      0.204000
     32 H14         7.3800   -0.3220    0.5080 hc        1 4X4      0.176500
     33 H15         6.9650   -0.4590   -2.0310 h4        1 4X4      0.169000
     34 H16         6.9480   -2.0060    0.0280 hc        1 4X4      0.176500
     35 H17         4.2100    0.2640   -8.0070 ha        1 4X4      0.002000
     36 H17A        0.7990    1.5550   -3.4970 ha        1 4X4      0.159000
     37 H18         4.2840   -0.0050   -7.3890 ha        1 4X4      0.002000
     38 H18A        3.3660    0.0620   -3.7240 h1        1 4X4      0.153500
     39 H22         0.8170    4.4580   -7.5350 hc        1 4X4      0.186500
     40 H23         2.4500    5.1760   -7.1990 hc        1 4X4      0.186500
     41 H24         2.1860    4.7650   -9.8570 ha        1 4X4      0.180000
     42 H28        -0.4920   -1.2720    4.3960 h1        1 4X4      0.117667
     43 H28A       -1.8570   -2.2130    5.2110 h1        1 4X4      0.117667
     44 H28B       -0.9040   -2.9830    3.8360 h1        1 4X4      0.117667
     45 HN1        -0.9540    1.7130   -2.1450 hn        1 4X4      0.283000
     46 O3         -2.3050   -1.5510    3.3260 os        1 4X4     -0.047000
     47 H42         3.3720    0.9750   -5.8020 hn        1 4X4      0.273000
@<TRIPOS>BOND
     1    1    3 1
     2    1   30 1
     3    1   45 1
     4    2   23 1
     5    2   26 1
     6    3    6 1
     7    3   12 1
     8    4    6 1
     9    4   13 1
    10    4   14 1
    11    5   22 1
    12    6    8 1
    13    7   16 1
    14    7   17 1
    15    8   10 1
    16    9   21 1
    17    9   22 1
    18    9   47 1
    19   10   11 1
    20   10   28 1
    21   11   46 1
    22   12   13 1
    23   12   20 1
    24   13   16 1
    25   14   15 1
    26   14   31 1
    27   15   16 1
    28   15   19 1
    29   17   18 1
    30   17   33 1
    31   18   19 1
    32   18   32 1
    33   18   34 1
    34   20   21 1
    35   20   36 1
    36   21   29 1
    37   21   38 1
    38   22   23 1
    39   23   24 1
    40   24   25 1
    41   24   39 1
    42   24   40 1
    43   25   26 1
    44   25   41 1
    45   27   42 1
    46   27   43 1
    47   27   44 1
    48   27   46 1
    49   35   37 1
@<TRIPOS>SUBSTRUCTURE
     1 4X4         1 TEMP              0 ****  ****    0 ROOT
