@<TRIPOS>MOLECULE
4X6
   26    27     1     0     0
SMALL
bcc


@<TRIPOS>ATOM
      1 CAG          0.0000     0.0000     0.0000 c3         1 4X6       0.150800
      2 CAF          1.5290     0.0000     0.0000 c3         1 4X6       0.038900
      3 CAK          2.0430     0.0000     1.4170 ca         1 4X6      -0.130300
      4 CAI          3.3710    -0.3560     1.6420 ca         1 4X6       0.047600
      5 NAB          4.1890    -0.7080     0.5670 nv         1 4X6      -0.484200
      6 CAD          3.8820    -0.3620     2.9330 ca         1 4X6      -0.167000
      7 CAC          3.0700    -0.0130     3.9930 ca         1 4X6      -0.066000
      8 CAE          1.7530     0.3380     3.7670 ca         1 4X6      -0.146000
      9 CAJ          1.2360     0.3440     2.4790 ca         1 4X6      -0.046300
     10 CAH         -0.2090     0.7250     2.2890 c3         1 4X6       0.214100
     11 NAL         -0.4680     1.0750     0.8890 n3         1 4X6      -0.543600
     12 CAA         -1.8930     1.3560     0.6710 c3         1 4X6       0.187100
     13 H1          -0.3520     0.1970    -1.0060 h1         1 4X6       0.012200
     14 H2          -0.3520    -0.9510     0.3810 h1         1 4X6       0.012200
     15 H3           1.8760     0.8990    -0.4950 hc         1 4X6       0.023700
     16 H4           1.8760    -0.8990    -0.4950 hc         1 4X6       0.023700
     17 H5           4.1130    -0.2160    -0.3010 hn         1 4X6       0.268800
     18 H6           4.8640    -1.4400     0.6700 hn         1 4X6       0.268800
     19 H7           4.9150    -0.6370     3.1070 ha         1 4X6       0.107000
     20 H8           3.4640    -0.0150     5.0010 ha         1 4X6       0.098000
     21 H9           1.1190     0.6110     4.6020 ha         1 4X6       0.104000
     22 H10         -0.4380     1.5770     2.9170 h1         1 4X6       0.014700
     23 H11         -0.8370    -0.1120     2.5680 h1         1 4X6       0.014700
     24 H13         -2.4760     0.4770     0.9180 h1         1 4X6      -0.000300
     25 H14         -2.1980     2.1820     1.3020 h1         1 4X6      -0.000300
     26 H15         -2.0550     1.6160    -0.3680 h1         1 4X6      -0.000300
@<TRIPOS>BOND
     1     1     2 1   
     2     1    11 1   
     3     1    13 1   
     4     1    14 1   
     5     2     3 1   
     6     2    15 1   
     7     2    16 1   
     8     3     4 ar  
     9     3     9 ar  
    10     4     5 1   
    11     4     6 ar  
    12     5    17 1   
    13     5    18 1   
    14     6     7 ar  
    15     6    19 1   
    16     7     8 ar  
    17     7    20 1   
    18     8     9 ar  
    19     8    21 1   
    20     9    10 1   
    21    10    11 1   
    22    10    22 1   
    23    10    23 1   
    24    11    12 1   
    25    12    24 1   
    26    12    25 1   
    27    12    26 1   
@<TRIPOS>SUBSTRUCTURE
     1 4X6         1 TEMP              0 ****  ****    0 ROOT
