@<TRIPOS>MOLECULE
molecule
   26    27     1     0     0
SMALL
bcc


@<TRIPOS>ATOM
      1 CAG          0.0000     0.0000     0.0000 c3         1 4X6       0.158800
      2 CAF          1.5290     0.0000     0.0000 c3         1 4X6      -0.026100
      3 CAK          2.0430     0.0000     1.4170 ca         1 4X6      -0.122300
      4 CAI          3.3710    -0.3560     1.6420 ca         1 4X6       0.189600
      5 NAB          4.1890    -0.7080     0.5670 nv         1 4X6      -0.944200
      6 CAD          3.8820    -0.3620     2.9330 ca         1 4X6      -0.189000
      7 CAC          3.0700    -0.0130     3.9930 ca         1 4X6      -0.097000
      8 CAE          1.7530     0.3380     3.7670 ca         1 4X6      -0.169000
      9 CAJ          1.2360     0.3440     2.4790 ca         1 4X6      -0.043300
     10 CAH         -0.2090     0.7250     2.2890 c3         1 4X6       0.209100
     11 NAL         -0.4680     1.0750     0.8890 n3         1 4X6      -0.725600
     12 CAA         -1.8930     1.3560     0.6710 c3         1 4X6       0.152100
     13 H1          -0.3520     0.1970    -1.0060 h1         1 4X6       0.037700
     14 H2          -0.3520    -0.9510     0.3810 h1         1 4X6       0.037700
     15 H3           1.8760     0.8990    -0.4950 hc         1 4X6       0.054700
     16 H4           1.8760    -0.8990    -0.4950 hc         1 4X6       0.054700
     17 H5           4.1130    -0.2160    -0.3010 hn         1 4X6       0.428300
     18 H6           4.8640    -1.4400     0.6700 hn         1 4X6       0.428300
     19 H7           4.9150    -0.6370     3.1070 ha         1 4X6       0.129000
     20 H8           3.4640    -0.0150     5.0010 ha         1 4X6       0.127000
     21 H9           1.1190     0.6110     4.6020 ha         1 4X6       0.126000
     22 H10         -0.4380     1.5770     2.9170 h1         1 4X6       0.044200
     23 H11         -0.8370    -0.1120     2.5680 h1         1 4X6       0.044200
     24 H13         -2.4760     0.4770     0.9180 h1         1 4X6       0.032033
     25 H14         -2.1980     2.1820     1.3020 h1         1 4X6       0.032033
     26 H15         -2.0550     1.6160    -0.3680 h1         1 4X6       0.032033
@<TRIPOS>BOND
     1     6     7 ar
     2     6     4 ar
     3     7     8 ar
     4     5     4 1
     5     4     3 ar
     6     8     9 ar
     7     3     9 ar
     8     3     2 1
     9     9    10 1
    10     2     1 1
    11    10    11 1
    12     1    11 1
    13    11    12 1
    14     1    13 1
    15     1    14 1
    16     2    15 1
    17     2    16 1
    18     5    17 1
    19     5    18 1
    20     6    19 1
    21     7    20 1
    22     8    21 1
    23    10    22 1
    24    10    23 1
    25    12    24 1
    26    12    25 1
    27    12    26 1
@<TRIPOS>SUBSTRUCTURE
     1 4X6         1 TEMP              0 ****  ****    0 ROOT
