@<TRIPOS>MOLECULE
4X8
   40    42     1     0     0
SMALL
bcc


@<TRIPOS>ATOM
      1 CAJ          0.0000     0.0000     0.0000 c3         1 4X8       0.129800
      2 CAI          1.5290     0.0000     0.0000 c3         1 4X8       0.033900
      3 CAQ          2.0440     0.0000     1.4170 ca         1 4X8      -0.065300
      4 CAG          3.3660     0.3570     1.6390 ca         1 4X8      -0.108000
      5 CAD          3.8830     0.3670     2.9200 ca         1 4X8      -0.098000
      6 CAF          3.0810     0.0200     3.9890 ca         1 4X8      -0.121000
      7 CAO          1.7580    -0.3360     3.7710 ca         1 4X8       0.030600
      8 NAC          0.9440    -0.6880     4.8510 nv         1 4X8      -0.561200
      9 CAS          1.2370    -0.3440     2.4790 ca         1 4X8      -0.089300
     10 CAL         -0.2070    -0.7260     2.2890 c3         1 4X8       0.217100
     11 NAT         -0.4660    -1.0760     0.8890 n3         1 4X8      -0.535600
     12 CAK         -1.8920    -1.3570     0.6720 c3         1 4X8       0.098500
     13 CAR         -2.0860    -1.9240    -0.7110 ca         1 4X8       0.421600
     14 NAM         -2.3120    -1.1090    -1.7240 nb         1 4X8      -0.632000
     15 CAE         -2.4890    -1.5560    -2.9530 ca         1 4X8       0.444200
     16 CAH         -2.4450    -2.9060    -3.2280 ca         1 4X8      -0.311300
     17 CAN         -2.2100    -3.8030    -2.1850 ca         1 4X8       0.080600
     18 NAB         -2.1580    -5.1730    -2.4200 nv         1 4X8      -0.438200
     19 CAP         -2.0230    -3.2880    -0.9020 ca         1 4X8      -0.268600
     20 CAA         -1.7590    -4.2120     0.2600 c3         1 4X8       0.072200
     21 H1          -0.3520    -0.1960    -1.0050 h1         1 4X8       0.028200
     22 H2          -0.3520     0.9500     0.3820 h1         1 4X8       0.028200
     23 H3           1.8760    -0.8990    -0.4960 hc         1 4X8       0.026200
     24 H4           1.8760     0.8990    -0.4960 hc         1 4X8       0.026200
     25 H5           3.9970     0.6290     0.8020 ha         1 4X8       0.104000
     26 H6           4.9160     0.6460     3.0860 ha         1 4X8       0.100000
     27 H7           3.4830     0.0270     4.9950 ha         1 4X8       0.106000
     28 H8           0.9570    -1.6250     5.2030 hn         1 4X8       0.271300
     29 H9           0.3800     0.0070     5.2990 hn         1 4X8       0.271300
     30 H10         -0.8360     0.1100     2.5700 h1         1 4X8       0.015200
     31 H11         -0.4350    -1.5790     2.9170 h1         1 4X8       0.015200
     32 H13         -2.2350    -2.0740     1.4080 h1         1 4X8       0.020700
     33 H14         -2.4600    -0.4400     0.7700 h1         1 4X8       0.020700
     34 H15         -2.6710    -0.8520    -3.7570 h4         1 4X8      -0.025900
     35 H16         -2.5910    -3.2660    -4.2390 ha         1 4X8       0.116000
     36 H17         -2.3650    -5.5320    -3.3310 hn         1 4X8       0.272300
     37 H18         -1.8830    -5.7960    -1.6870 hn         1 4X8       0.272300
     38 H19         -1.9700    -5.2320    -0.0350 hc         1 4X8       0.010367
     39 H20         -0.7210    -4.1290     0.5590 hc         1 4X8       0.010367
     40 H21         -2.3970    -3.9370     1.0910 hc         1 4X8       0.010367
@<TRIPOS>BOND
     1     1     2 1   
     2     1    11 1   
     3     1    21 1   
     4     1    22 1   
     5     2     3 1   
     6     2    23 1   
     7     2    24 1   
     8     3     4 ar  
     9     3     9 ar  
    10     4     5 ar  
    11     4    25 1   
    12     5     6 ar  
    13     5    26 1   
    14     6     7 ar  
    15     6    27 1   
    16     7     8 1   
    17     7     9 ar  
    18     8    28 1   
    19     8    29 1   
    20     9    10 1   
    21    10    11 1   
    22    10    30 1   
    23    10    31 1   
    24    11    12 1   
    25    12    13 1   
    26    12    32 1   
    27    12    33 1   
    28    13    14 ar  
    29    13    19 ar  
    30    14    15 ar  
    31    15    16 ar  
    32    15    34 1   
    33    16    17 ar  
    34    16    35 1   
    35    17    18 1   
    36    17    19 ar  
    37    18    36 1   
    38    18    37 1   
    39    19    20 1   
    40    20    38 1   
    41    20    39 1   
    42    20    40 1   
@<TRIPOS>SUBSTRUCTURE
     1 4X8         1 TEMP              0 ****  ****    0 ROOT
