@<TRIPOS>MOLECULE
molecule
   43    45     1     0     0
SMALL
bcc


@<TRIPOS>ATOM
      1 C1           0.0000     0.0000     0.0000 c3         1 4X9       0.795700
      2 O3           1.4300     0.0000     0.0000 os         1 4X9      -0.340900
      3 C4           2.0480     0.0000     1.2110 ca         1 4X9       0.089100
      4 C5           3.4330     0.0000     1.2830 ca         1 4X9      -0.133000
      5 C6           4.0600    -0.0010     2.5140 ca         1 4X9      -0.148500
      6 C7           3.3040     0.0000     3.6770 ca         1 4X9       0.120100
      7 C8           1.9200    -0.0000     3.6050 ca         1 4X9      -0.148500
      8 C9           1.2920     0.0050     2.3740 ca         1 4X9      -0.133000
      9 O10          3.9220    -0.0020     4.8890 os         1 4X9      -0.248200
     10 C11          5.2810     0.0100     4.9120 ca         1 4X9       0.098100
     11 C12          5.9630     1.2190     4.9290 ca         1 4X9      -0.139000
     12 C13          7.3420     1.2340     4.9530 ca         1 4X9      -0.100500
     13 C14          8.0500     0.0330     4.9590 cp         1 4X9      -0.030000
     14 C15          7.3620    -1.1790     4.9410 ca         1 4X9      -0.100500
     15 C16          5.9840    -1.1870     4.9240 ca         1 4X9      -0.139000
     16 C17          9.5330     0.0450     4.9830 cp         1 4X9      -0.189300
     17 C18         10.2240     0.5560     6.0930 ca         1 4X9       0.175100
     18 C19         11.6160     0.5440     6.0630 ca         1 4X9      -0.164900
     19 C20         12.2620     0.0330     4.9540 ca         1 4X9       0.467600
     20 C22         10.2630    -0.4550     3.9100 ca         1 4X9       0.466600
     21 F23         -0.4660     1.1420     0.6590 f          1 4X9      -0.205300
     22 F24         -0.4660     0.0010    -1.3190 f          1 4X9      -0.205300
     23 F25         -0.4650    -1.1420     0.6590 f          1 4X9      -0.205300
     24 C26         13.7680     0.0160     4.9170 c3         1 4X9      -0.145400
     25 Cl          12.5280     1.1630     7.4040 cl         1 4X9      -0.089400
     26 O28          9.5540     1.0510     7.1640 oh         1 4X9      -0.495100
     27 C29          9.5400    -1.0150     2.7120 c3         1 4X9      -0.141400
     28 N30         11.5810    -0.4400     3.9270 nb         1 4X9      -0.696000
     29 H5           4.0230    -0.0000     0.3740 ha         1 4X9       0.152500
     30 H6           5.1420    -0.0010     2.5710 ha         1 4X9       0.153000
     31 H8           1.3300     0.0020     4.5130 ha         1 4X9       0.153000
     32 H9           0.2100     0.0050     2.3180 ha         1 4X9       0.152500
     33 H12          5.4120     2.1520     4.9250 ha         1 4X9       0.148000
     34 H13          7.8740     2.1770     4.9670 ha         1 4X9       0.144000
     35 H15          7.9090    -2.1140     4.9480 ha         1 4X9       0.144000
     36 H16          5.4480    -2.1290     4.9100 ha         1 4X9       0.148000
     37 H26         14.1010    -0.3910     3.9700 hc         1 4X9       0.060700
     38 H26A        14.1430    -0.5990     5.7260 hc         1 4X9       0.060700
     39 H26B        14.1440     1.0260     5.0270 hc         1 4X9       0.060700
     40 HO28         9.7970     0.5680     7.9370 ho         1 4X9       0.435000
     41 H29         10.2480    -1.1880     1.9110 hc         1 4X9       0.058033
     42 H29A         9.0640    -1.9500     2.9810 hc         1 4X9       0.058033
     43 H29B         8.7870    -0.3090     2.3820 hc         1 4X9       0.058033
@<TRIPOS>BOND
     1     1     2 1   
     2     1    21 1   
     3     1    22 1   
     4     1    23 1   
     5     2     3 1   
     6     3     4 ar  
     7     3     8 ar  
     8     4     5 ar  
     9     5     6 ar  
    10     6     7 ar  
    11     6     9 1   
    12     7     8 ar  
    13     9    10 1   
    14    10    11 ar  
    15    10    15 ar  
    16    11    12 ar  
    17    12    13 ar  
    18    13    14 ar  
    19    13    16 1   
    20    14    15 ar  
    21    16    17 ar  
    22    16    20 ar  
    23    17    18 ar  
    24    17    26 1   
    25    18    19 ar  
    26    18    25 1   
    27    19    24 1   
    28    19    28 ar  
    29    20    27 1   
    30    20    28 ar  
    31     4    29 1   
    32     5    30 1   
    33     7    31 1   
    34     8    32 1   
    35    11    33 1   
    36    12    34 1   
    37    14    35 1   
    38    15    36 1   
    39    24    37 1   
    40    24    38 1   
    41    24    39 1   
    42    26    40 1   
    43    27    41 1   
    44    27    42 1   
    45    27    43 1   
@<TRIPOS>SUBSTRUCTURE
     1 4X9         1 TEMP              0 ****  ****    0 ROOT
