@<TRIPOS>MOLECULE
4X9
   43    45     1     0     0
SMALL
bcc


@<TRIPOS>ATOM
      1 C1         -0.1230    0.3940   -0.0770 c3        1 4X9      0.817700
      2 O3          0.8600    1.1990    0.5210 os        1 4X9     -0.366900
      3 C4          1.6320    0.6270    1.5340 ca        1 4X9      0.051100
      4 C5          2.9700    0.3310    1.2480 ca        1 4X9     -0.093000
      5 C6          3.8010   -0.1010    2.2780 ca        1 4X9     -0.157000
      6 C7          3.2810   -0.2330    3.5710 ca        1 4X9      0.123100
      7 C8          1.9360    0.0620    3.8550 ca        1 4X9     -0.157000
      8 C9          1.1060    0.4940    2.8260 ca        1 4X9     -0.093000
      9 O10         4.0070   -0.7370    4.6420 os        1 4X9     -0.245200
     10 C11         5.3880   -0.5480    4.6150 ca        1 4X9      0.098100
     11 C12         5.9770    0.6720    4.2650 ca        1 4X9     -0.153000
     12 C13         7.3580    0.8140    4.3790 ca        1 4X9     -0.091000
     13 C14         8.1480   -0.2490    4.8370 cp        1 4X9     -0.033000
     14 C15         7.5390   -1.4620    5.1890 ca        1 4X9     -0.091000
     15 C16         6.1610   -1.6230    5.0770 ca        1 4X9     -0.153000
     16 C17         9.5970   -0.0910    4.9570 cp        1 4X9     -0.196300
     17 C18        10.1600    0.6570    6.0130 ca        1 4X9      0.190100
     18 C19        11.5600    0.7830    6.1030 ca        1 4X9     -0.211900
     19 C20        12.3650    0.1530    5.1220 ca        1 4X9      0.475600
     20 C22        10.4850   -0.6790    4.0220 ca        1 4X9      0.468600
     21 F23        -1.1040    0.0590    0.7990 f         1 4X9     -0.217300
     22 F24        -0.6500    1.1620   -1.0620 f         1 4X9     -0.217300
     23 F25         0.3920   -0.7380   -0.6180 f         1 4X9     -0.217300
     24 C26        13.8530    0.2790    5.2080 c3        1 4X9     -0.156400
     25 CL         12.2660    1.6730    7.3650 cl        1 4X9     -0.079400
     26 O28         9.2920    1.2280    6.9040 oh        1 4X9     -0.475100
     27 C29         9.9130   -1.4590    2.8810 c3        1 4X9     -0.154400
     28 N30        11.8300   -0.5590    4.1060 nb        1 4X9     -0.691000
     29 H5          3.3530    0.4450    0.2230 ha        1 4X9      0.157000
     30 H6          4.8570   -0.3370    2.0790 ha        1 4X9      0.158000
     31 H8          1.5550   -0.0560    4.8800 ha        1 4X9      0.158000
     32 H9          0.0470    0.7290    3.0150 ha        1 4X9      0.157000
     33 H12         5.3530    1.5040    3.9090 ha        1 4X9      0.151500
     34 H13         7.8300    1.7740    4.1200 ha        1 4X9      0.142500
     35 H15         8.1550   -2.2960    5.5600 ha        1 4X9      0.142500
     36 H16         5.6740   -2.5680    5.3580 ha        1 4X9      0.151500
     37 H26        14.3700   -0.2620    4.3780 hc        1 4X9      0.063033
     38 H26A       14.2040   -0.1440    6.1820 hc        1 4X9      0.063033
     39 H26B       14.1360    1.3600    5.1620 hc        1 4X9      0.063033
     40 HO28        9.8080    1.6890    7.5870 ho        1 4X9      0.434000
     41 H29         9.3840   -0.7580    2.1880 hc        1 4X9      0.060033
     42 H29A       10.6990   -2.0060    2.3040 hc        1 4X9      0.060033
     43 H29B        9.1720   -2.2000    3.2720 hc        1 4X9      0.060033
@<TRIPOS>BOND
     1    1    2 1   
     2    1   21 1   
     3    1   22 1   
     4    1   23 1   
     5    2    3 1   
     6    3    4 ar  
     7    3    8 ar  
     8    4    5 ar  
     9    4   29 1   
    10    5    6 ar  
    11    5   30 1   
    12    6    7 ar  
    13    6    9 1   
    14    7    8 ar  
    15    7   31 1   
    16    8   32 1   
    17    9   10 1   
    18   10   11 ar  
    19   10   15 ar  
    20   11   12 ar  
    21   11   33 1   
    22   12   13 ar  
    23   12   34 1   
    24   13   14 ar  
    25   13   16 1   
    26   14   15 ar  
    27   14   35 1   
    28   15   36 1   
    29   16   17 ar  
    30   16   20 ar  
    31   17   18 ar  
    32   17   26 1   
    33   18   19 ar  
    34   18   25 1   
    35   19   24 1   
    36   19   28 ar  
    37   20   27 1   
    38   20   28 ar  
    39   24   37 1   
    40   24   38 1   
    41   24   39 1   
    42   26   40 1   
    43   27   41 1   
    44   27   42 1   
    45   27   43 1   
@<TRIPOS>SUBSTRUCTURE
     1 4X9         1 TEMP              0 ****  ****    0 ROOT
