@<TRIPOS>MOLECULE
4XB
   54    57     1     0     0
SMALL
bcc


@<TRIPOS>ATOM
      1 C          -0.2180    0.3840    0.0920 c3        1 4XB     -0.057900
      2 N          -3.6420    0.4140    5.8880 n3        1 4XB     -0.822200
      3 O           3.4430   -0.0780    0.7050 os        1 4XB     -0.165200
      4 C1          1.1390    0.1700    0.5960 cc        1 4XB      0.026600
      5 O1         -0.5540   -0.1010    3.1120 os        1 4XB     -0.321900
      6 C2          2.3230    0.1870   -0.1200 cd        1 4XB     -0.068100
      7 O2          1.7640    0.6870   -2.4080 o         1 4XB     -0.542000
      8 C3          2.9250   -0.2600    1.9820 ca        1 4XB      0.117100
      9 C4          3.6620   -0.5420    3.1310 ca        1 4XB     -0.169000
     10 C5          2.9340   -0.6780    4.3090 ca        1 4XB     -0.058000
     11 C6          1.5390   -0.5390    4.3480 ca        1 4XB     -0.244000
     12 C7          0.8090   -0.2600    3.1870 ca        1 4XB      0.204100
     13 C8         -1.3200   -0.3270    4.3100 c3        1 4XB      0.141100
     14 C9         -2.7350   -0.6300    3.8220 c3        1 4XB     -0.094400
     15 C10        -3.6830   -0.7420    5.0140 c3        1 4XB      0.165800
     16 C11        -2.3080    0.7670    6.3330 c3        1 4XB      0.165800
     17 C12        -1.3140    0.9210    5.1840 c3        1 4XB     -0.094400
     18 C13         1.5050   -0.1160    1.9720 ca        1 4XB     -0.168800
     19 C14         2.5900    0.4340   -1.5240 c         1 4XB      0.681300
     20 C15         9.4730    1.4880   -6.2230 c3        1 4XB      0.114700
     21 C19         4.2210    0.6140   -3.2450 c3        1 4XB      0.182700
     22 C20         5.7010    0.5420   -3.4160 ca        1 4XB     -0.061300
     23 C21         6.5320   -0.0490   -2.4580 ca        1 4XB     -0.137000
     24 C22         7.9060   -0.1140   -2.6730 ca        1 4XB     -0.099000
     25 C23         8.4710    0.4010   -3.8390 ca        1 4XB     -0.200000
     26 C24         7.6350    0.9920   -4.7940 ca        1 4XB      0.122100
     27 C25         6.2470    1.0690   -4.5890 ca        1 4XB     -0.154000
     28 OAQ         8.0720    1.5370   -5.9880 os        1 4XB     -0.328900
     29 OAR         3.9150    0.3720   -1.8570 os        1 4XB     -0.414900
     30 H          -0.7360   -0.6030   -0.0300 hc        1 4XB      0.067700
     31 HA         -0.1980    0.8990   -0.9010 hc        1 4XB      0.067700
     32 HB         -0.8080    0.9940    0.8230 hc        1 4XB      0.067700
     33 HN         -4.2420    0.2700    6.6780 hn        1 4XB      0.367800
     34 H4          4.7530   -0.6470    3.0990 ha        1 4XB      0.157000
     35 H5          3.4680   -0.9000    5.2470 ha        1 4XB      0.138000
     36 H6          1.0290   -0.6490    5.3150 ha        1 4XB      0.141000
     37 H8         -0.9110   -1.2120    4.8680 h1        1 4XB      0.051700
     38 H9         -2.7420   -1.5930    3.2520 hc        1 4XB      0.064200
     39 H9A        -3.0690    0.1850    3.1290 hc        1 4XB      0.064200
     40 H10        -4.7380   -0.8290    4.6260 h1        1 4XB      0.031200
     41 H10A       -3.4430   -1.7000    5.5650 h1        1 4XB      0.031200
     42 H11        -1.8890    0.0080    7.0590 h1        1 4XB      0.031200
     43 H11A       -2.3870    1.7500    6.8780 h1        1 4XB      0.031200
     44 H12        -0.2920    1.0970    5.6050 hc        1 4XB      0.064200
     45 H12A       -1.5830    1.8100    4.5550 hc        1 4XB      0.064200
     46 H15         9.5870    1.9800   -7.2220 h1        1 4XB      0.043700
     47 H15A       10.0270    2.0580   -5.4380 h1        1 4XB      0.043700
     48 H15B        9.8300    0.4300   -6.2630 h1        1 4XB      0.043700
     49 H19         3.8240    1.6250   -3.5300 h1        1 4XB      0.066200
     50 H19A        3.7080   -0.1720   -3.8640 h1        1 4XB      0.066200
     51 H21         6.0930   -0.4540   -1.5320 ha        1 4XB      0.155000
     52 H22         8.5560   -0.5770   -1.9160 ha        1 4XB      0.133000
     53 H23         9.5570    0.3410   -3.9950 ha        1 4XB      0.136000
     54 H25         5.6120    1.5410   -5.3520 ha        1 4XB      0.150000
@<TRIPOS>BOND
     1    1    4 1   
     2    1   30 1   
     3    1   31 1   
     4    1   32 1   
     5    2   15 1   
     6    2   16 1   
     7    2   33 1   
     8    3    6 1   
     9    3    8 1   
    10    4    6 2   
    11    4   18 1   
    12    5   12 1   
    13    5   13 1   
    14    6   19 1   
    15    7   19 2   
    16    8    9 ar  
    17    8   18 ar  
    18    9   10 ar  
    19    9   34 1   
    20   10   11 ar  
    21   10   35 1   
    22   11   12 ar  
    23   11   36 1   
    24   12   18 ar  
    25   13   14 1   
    26   13   17 1   
    27   13   37 1   
    28   14   15 1   
    29   14   38 1   
    30   14   39 1   
    31   15   40 1   
    32   15   41 1   
    33   16   17 1   
    34   16   42 1   
    35   16   43 1   
    36   17   44 1   
    37   17   45 1   
    38   19   29 1   
    39   20   28 1   
    40   20   46 1   
    41   20   47 1   
    42   20   48 1   
    43   21   22 1   
    44   21   29 1   
    45   21   49 1   
    46   21   50 1   
    47   22   23 ar  
    48   22   27 ar  
    49   23   24 ar  
    50   23   51 1   
    51   24   25 ar  
    52   24   52 1   
    53   25   26 ar  
    54   25   53 1   
    55   26   27 ar  
    56   26   28 1   
    57   27   54 1   
@<TRIPOS>SUBSTRUCTURE
     1 4XB         1 TEMP              0 ****  ****    0 ROOT
