@<TRIPOS>MOLECULE
molecule
   36    37     1     0     0
SMALL
bcc


@<TRIPOS>ATOM
      1 CAJ          0.0000     0.0000     0.0000 c3         1 4XC       0.152800
      2 CAH          1.5290     0.0000     0.0000 c3         1 4XC      -0.032100
      3 CAO          2.0430     0.0000     1.4170 ca         1 4XC      -0.029300
      4 CAF          3.3640     0.3570     1.6410 ca         1 4XC      -0.179000
      5 CAD          3.8810     0.3670     2.9220 ca         1 4XC      -0.088000
      6 CAE          3.0780     0.0210     3.9900 ca         1 4XC      -0.201000
      7 CAN          1.7560    -0.3360     3.7720 ca         1 4XC       0.200600
      8 NAB          0.9410    -0.6870     4.8510 nv         1 4XC      -0.936200
      9 CAP          1.2360    -0.3430     2.4790 ca         1 4XC      -0.141300
     10 CAK         -0.2090    -0.7250     2.2890 c3         1 4XC       0.219100
     11 NAQ         -0.4670    -1.0760     0.8880 n3         1 4XC      -0.727600
     12 CAI         -1.8930    -1.3560     0.6710 c3         1 4XC       0.175800
     13 CAG         -2.0900    -1.9330    -0.7340 c3         1 4XC      -0.159400
     14 CAM         -3.5520    -2.2210    -0.9580 c          1 4XC       0.655100
     15 OAC         -4.3570    -1.9880    -0.0800 o          1 4XC      -0.612100
     16 NAL         -3.9660    -2.7360    -2.1320 ns         1 4XC      -0.590900
     17 CAA         -5.3870    -3.0170    -2.3490 c3         1 4XC       0.103300
     18 H1          -0.3520    -0.1960    -1.0060 h1         1 4XC       0.038200
     19 H2          -0.3520     0.9500     0.3820 h1         1 4XC       0.038200
     20 H3           1.8760    -0.8990    -0.4950 hc         1 4XC       0.058200
     21 H4           1.8760     0.8990    -0.4960 hc         1 4XC       0.058200
     22 H5           3.9960     0.6290     0.8040 ha         1 4XC       0.126000
     23 H6           4.9140     0.6460     3.0880 ha         1 4XC       0.127000
     24 H7           3.4800     0.0280     4.9960 ha         1 4XC       0.129000
     25 H8          -0.0420    -0.5020     4.8160 hn         1 4XC       0.428800
     26 H9           1.3480    -1.0730     5.6800 hn         1 4XC       0.428800
     27 H10         -0.4380    -1.5770     2.9170 h1         1 4XC       0.041200
     28 H11         -0.8390     0.1110     2.5680 h1         1 4XC       0.041200
     29 H13         -2.2360    -2.0730     1.4070 h1         1 4XC       0.050700
     30 H14         -2.4600    -0.4390     0.7680 h1         1 4XC       0.050700
     31 H15         -1.5220    -2.8500    -0.8310 hc         1 4XC       0.067200
     32 H16         -1.7470    -1.2150    -1.4700 hc         1 4XC       0.067200
     33 H17         -3.3030    -2.9170    -2.8600 hn         1 4XC       0.312500
     34 H18         -5.7310    -3.7340    -1.6130 h1         1 4XC       0.042033
     35 H19         -5.5270    -3.4240    -3.3430 h1         1 4XC       0.042033
     36 H20         -5.9560    -2.0990    -2.2510 h1         1 4XC       0.042033
@<TRIPOS>BOND
     1     6     5 ar
     2     6     7 ar
     3     5     4 ar
     4     8     7 1
     5     7     9 ar
     6     4     3 ar
     7     9     3 ar
     8     9    10 1
     9     3     2 1
    10    10    11 1
    11     2     1 1
    12     1    11 1
    13    11    12 1
    14    12    13 1
    15    13    14 1
    16    15    14 2
    17    14    16 1
    18    16    17 1
    19     1    18 1
    20     1    19 1
    21     2    20 1
    22     2    21 1
    23     4    22 1
    24     5    23 1
    25     6    24 1
    26     8    25 1
    27     8    26 1
    28    10    27 1
    29    10    28 1
    30    12    29 1
    31    12    30 1
    32    13    31 1
    33    13    32 1
    34    16    33 1
    35    17    34 1
    36    17    35 1
    37    17    36 1
@<TRIPOS>SUBSTRUCTURE
     1 4XC         1 TEMP              0 ****  ****    0 ROOT
