@<TRIPOS>MOLECULE
4XC
   36    37     1     0     0
SMALL
bcc


@<TRIPOS>ATOM
      1 CAJ          0.0000     0.0000     0.0000 c3         1 4XC       0.136800
      2 CAH          1.5290     0.0000     0.0000 c3         1 4XC       0.033900
      3 CAO          2.0430     0.0000     1.4170 ca         1 4XC      -0.031300
      4 CAF          3.3640     0.3570     1.6410 ca         1 4XC      -0.158000
      5 CAD          3.8810     0.3670     2.9220 ca         1 4XC      -0.057000
      6 CAE          3.0780     0.0210     3.9900 ca         1 4XC      -0.181000
      7 CAN          1.7560    -0.3360     3.7720 ca         1 4XC       0.056600
      8 NAB          0.9410    -0.6870     4.8510 nv         1 4XC      -0.472200
      9 CAP          1.2360    -0.3430     2.4790 ca         1 4XC      -0.150300
     10 CAK         -0.2090    -0.7250     2.2890 c3         1 4XC       0.226100
     11 NAQ         -0.4670    -1.0760     0.8880 n3         1 4XC      -0.542600
     12 CAI         -1.8930    -1.3560     0.6710 c3         1 4XC       0.166800
     13 CAG         -2.0900    -1.9330    -0.7340 c3         1 4XC      -0.106400
     14 CAM         -3.5520    -2.2210    -0.9580 c          1 4XC       0.570100
     15 OAC         -4.3570    -1.9880    -0.0800 o          1 4XC      -0.650100
     16 NAL         -3.9660    -2.7360    -2.1320 ns         1 4XC      -0.198900
     17 CAA         -5.3870    -3.0170    -2.3490 c3         1 4XC       0.087300
     18 H1          -0.3520    -0.1960    -1.0060 h1         1 4XC       0.015200
     19 H2          -0.3520     0.9500     0.3820 h1         1 4XC       0.015200
     20 H3           1.8760    -0.8990    -0.4950 hc         1 4XC       0.025700
     21 H4           1.8760     0.8990    -0.4960 hc         1 4XC       0.025700
     22 H5           3.9960     0.6290     0.8040 ha         1 4XC       0.104000
     23 H6           4.9140     0.6460     3.0880 ha         1 4XC       0.097000
     24 H7           3.4800     0.0280     4.9960 ha         1 4XC       0.107000
     25 H8          -0.0420    -0.5020     4.8160 hn         1 4XC       0.268300
     26 H9           1.3480    -1.0730     5.6800 hn         1 4XC       0.268300
     27 H10         -0.4380    -1.5770     2.9170 h1         1 4XC       0.012700
     28 H11         -0.8390     0.1110     2.5680 h1         1 4XC       0.012700
     29 H13         -2.2360    -2.0730     1.4070 h1         1 4XC       0.024200
     30 H14         -2.4600    -0.4390     0.7680 h1         1 4XC       0.024200
     31 H15         -1.5220    -2.8500    -0.8310 hc         1 4XC       0.035700
     32 H16         -1.7470    -1.2150    -1.4700 hc         1 4XC       0.035700
     33 H17         -3.3030    -2.9170    -2.8600 hn         1 4XC       0.169500
     34 H18         -5.7310    -3.7340    -1.6130 h1         1 4XC       0.009033
     35 H19         -5.5270    -3.4240    -3.3430 h1         1 4XC       0.009033
     36 H20         -5.9560    -2.0990    -2.2510 h1         1 4XC       0.009033
@<TRIPOS>BOND
     1     1     2 1   
     2     1    11 1   
     3     1    18 1   
     4     1    19 1   
     5     2     3 1   
     6     2    20 1   
     7     2    21 1   
     8     3     4 ar  
     9     3     9 ar  
    10     4     5 ar  
    11     4    22 1   
    12     5     6 ar  
    13     5    23 1   
    14     6     7 ar  
    15     6    24 1   
    16     7     8 1   
    17     7     9 ar  
    18     8    25 1   
    19     8    26 1   
    20     9    10 1   
    21    10    11 1   
    22    10    27 1   
    23    10    28 1   
    24    11    12 1   
    25    12    13 1   
    26    12    29 1   
    27    12    30 1   
    28    13    14 1   
    29    13    31 1   
    30    13    32 1   
    31    14    15 2   
    32    14    16 1   
    33    16    17 1   
    34    16    33 1   
    35    17    34 1   
    36    17    35 1   
    37    17    36 1   
@<TRIPOS>SUBSTRUCTURE
     1 4XC         1 TEMP              0 ****  ****    0 ROOT
