@<TRIPOS>MOLECULE
4XD
   33    34     1     0     0
SMALL
bcc


@<TRIPOS>ATOM
      1 CAI          0.0000     0.0000     0.0000 c3         1 4XD       0.133800
      2 CAG          1.5290     0.0000     0.0000 c3         1 4XD       0.033900
      3 CAM          2.0450     0.0000     1.4160 ca         1 4XD      -0.027300
      4 CAE          3.3660     0.3570     1.6390 ca         1 4XD      -0.159000
      5 CAC          3.8830     0.3670     2.9200 ca         1 4XD      -0.056000
      6 CAD          3.0810     0.0210     3.9890 ca         1 4XD      -0.181000
      7 CAL          1.7580    -0.3350     3.7710 ca         1 4XD       0.056600
      8 NAB          0.9450    -0.6870     4.8520 nv         1 4XD      -0.472200
      9 CAN          1.2370    -0.3430     2.4790 ca         1 4XD      -0.152300
     10 CAJ         -0.2070    -0.7250     2.2900 c3         1 4XD       0.224100
     11 NAO         -0.4660    -1.0760     0.8900 n3         1 4XD      -0.520600
     12 CAH         -1.8920    -1.3560     0.6730 c3         1 4XD       0.148800
     13 CAF         -2.0910    -1.9320    -0.7310 c3         1 4XD       0.204400
     14 OAK         -1.4380    -3.2000    -0.8220 os         1 4XD      -0.399600
     15 CAA         -1.5620    -3.8280    -2.0990 c3         1 4XD       0.249700
     16 H1          -0.3520     0.9510     0.3820 h1         1 4XD       0.015700
     17 H2          -0.3520    -0.1970    -1.0050 h1         1 4XD       0.015700
     18 H3           1.8760     0.8990    -0.4960 hc         1 4XD       0.027700
     19 H4           1.8760    -0.8990    -0.4960 hc         1 4XD       0.027700
     20 H5           3.9970     0.6290     0.8020 ha         1 4XD       0.105000
     21 H6           4.9170     0.6450     3.0850 ha         1 4XD       0.097000
     22 H7           3.4840     0.0280     4.9950 ha         1 4XD       0.107000
     23 H8           1.3510    -1.0880     5.6740 hn         1 4XD       0.267800
     24 H9          -0.0470    -0.5650     4.7920 hn         1 4XD       0.267800
     25 H10         -0.4360    -1.5760     2.9190 h1         1 4XD       0.009200
     26 H11         -0.8360     0.1120     2.5700 h1         1 4XD       0.009200
     27 H13         -2.2340    -2.0730     1.4090 h1         1 4XD       0.013700
     28 H14         -2.4590    -0.4390     0.7700 h1         1 4XD       0.013700
     29 H15         -1.6680    -1.2550    -1.4630 h1         1 4XD      -0.007300
     30 H16         -3.1490    -2.0570    -0.9240 h1         1 4XD      -0.007300
     31 H17         -1.1900    -3.1610    -2.8670 h1         1 4XD      -0.014633
     32 H18         -2.6040    -4.0540    -2.2910 h1         1 4XD      -0.014633
     33 H19         -0.9860    -4.7460    -2.1080 h1         1 4XD      -0.014633
@<TRIPOS>BOND
     1     1     2 1   
     2     1    11 1   
     3     1    16 1   
     4     1    17 1   
     5     2     3 1   
     6     2    18 1   
     7     2    19 1   
     8     3     4 ar  
     9     3     9 ar  
    10     4     5 ar  
    11     4    20 1   
    12     5     6 ar  
    13     5    21 1   
    14     6     7 ar  
    15     6    22 1   
    16     7     8 1   
    17     7     9 ar  
    18     8    23 1   
    19     8    24 1   
    20     9    10 1   
    21    10    11 1   
    22    10    25 1   
    23    10    26 1   
    24    11    12 1   
    25    12    13 1   
    26    12    27 1   
    27    12    28 1   
    28    13    14 1   
    29    13    29 1   
    30    13    30 1   
    31    14    15 1   
    32    15    31 1   
    33    15    32 1   
    34    15    33 1   
@<TRIPOS>SUBSTRUCTURE
     1 4XD         1 TEMP              0 ****  ****    0 ROOT
