@<TRIPOS>MOLECULE
4XE
   37    38     1     0     0
SMALL
bcc


@<TRIPOS>ATOM
      1 C2           0.0000     0.0000     0.0000 c          1 4XE       0.581100
      2 C3           1.5060     0.0000     0.0000 c3         1 4XE       0.081800
      3 N4           1.9960     0.0000     1.3860 n3         1 4XE      -0.506600
      4 C5           1.6510     1.2570     2.0660 c3         1 4XE       0.129800
      5 C6           2.1250     1.1930     3.5190 c3         1 4XE      -0.024700
      6 C8           3.9050    -0.2890     2.8910 c3         1 4XE      -0.024700
      7 C11         -2.1430     0.0120    -1.1840 c3         1 4XE       0.041000
      8 C12         -2.6230     1.1840    -2.0470 c3         1 4XE      -0.039400
      9 C13         -1.9780     1.0880    -3.4310 c3         1 4XE      -0.027400
     10 C14         -0.4560     1.1780    -3.2960 c3         1 4XE      -0.039400
     11 C15          0.0460     0.0060    -2.4480 c3         1 4XE       0.041000
     12 O1          -0.6070     0.0000     1.0500 o          1 4XE      -0.652100
     13 N7           3.5780     0.9810     3.5520 ny         1 4XE       0.041000
     14 C9           3.4460    -0.2370     1.4320 c3         1 4XE       0.129800
     15 N10         -0.6740     0.0060    -1.1670 n          1 4XE      -0.124800
     16 H16          1.8680     0.8840    -0.5110 h1         1 4XE       0.038200
     17 H17          1.8680    -0.8850    -0.5110 h1         1 4XE       0.038200
     18 H19          2.1390     2.0840     1.5640 h1         1 4XE       0.052450
     19 H18          0.5770     1.3960     2.0430 h1         1 4XE       0.052450
     20 H20          1.8860     2.1250     4.0170 hx         1 4XE       0.086450
     21 H21          1.6300     0.3710     4.0220 hx         1 4XE       0.086450
     22 H25          4.9760    -0.4480     2.9260 hx         1 4XE       0.086450
     23 H24          3.3970    -1.1000     3.3990 hx         1 4XE       0.086450
     24 H28         -2.5170     0.1300    -0.1740 h1         1 4XE       0.033200
     25 H31         -3.7000     1.1400    -2.1470 hc         1 4XE       0.025950
     26 H30         -2.3350     2.1170    -1.5790 hc         1 4XE       0.025950
     27 H32         -2.2430     0.1410    -3.8870 hc         1 4XE       0.025700
     28 H33         -2.3330     1.9030    -4.0500 hc         1 4XE       0.025700
     29 H35         -0.0040     1.1310    -4.2790 hc         1 4XE       0.025950
     30 H34         -0.1920     2.1110    -2.8140 hc         1 4XE       0.025950
     31 H37          1.1080     0.1200    -2.2660 h1         1 4XE       0.033200
     32 H36         -0.1400    -0.9250    -2.9690 h1         1 4XE       0.033200
     33 H23          3.8880     0.9490     4.5030 hn         1 4XE       0.236800
     34 H22          4.0340     1.7320     3.0730 hn         1 4XE       0.236800
     35 H26          3.6720    -1.1810     0.9500 h1         1 4XE       0.052450
     36 H27          3.9590     0.5680     0.9210 h1         1 4XE       0.052450
     37 H29         -2.5050    -0.9190    -1.6040 h1         1 4XE       0.033200
@<TRIPOS>BOND
     1     1     2 1   
     2     1    12 2   
     3     1    15 1   
     4     2     3 1   
     5     2    16 1   
     6     2    17 1   
     7     3     4 1   
     8     3    14 1   
     9     4     5 1   
    10     4    18 1   
    11     4    19 1   
    12     5    13 1   
    13     5    20 1   
    14     5    21 1   
    15     6    13 1   
    16     6    14 1   
    17     6    22 1   
    18     6    23 1   
    19     7     8 1   
    20     7    15 1   
    21     7    24 1   
    22     7    37 1   
    23     8     9 1   
    24     8    25 1   
    25     8    26 1   
    26     9    10 1   
    27     9    27 1   
    28     9    28 1   
    29    10    11 1   
    30    10    29 1   
    31    10    30 1   
    32    11    15 1   
    33    11    31 1   
    34    11    32 1   
    35    13    33 1   
    36    13    34 1   
    37    14    35 1   
    38    14    36 1   
@<TRIPOS>SUBSTRUCTURE
     1 4XE         1 TEMP              0 ****  ****    0 ROOT
