@<TRIPOS>MOLECULE
molecule
   26    26     1     0     0
SMALL
bcc


@<TRIPOS>ATOM
      1 C1           0.0000     0.0000     0.0000 c3         1 4XF      -0.118100
      2 C2           1.5310     0.0000     0.0000 c3         1 4XF       0.013500
      3 N4           2.0210    -1.1990    -0.6920 nz         1 4XF      -0.794600
      4 C8           2.0320     0.0000     1.4210 c          1 4XF       0.633100
      5 O9           2.7290    -0.9100     1.8180 o          1 4XF      -0.528100
      6 C11          2.0810     0.9590     3.5930 ca         1 4XF       0.568200
      7 C12          1.6510     1.9500     4.4640 ca         1 4XF      -0.333300
      8 C13          2.0270     1.8910     5.7970 ca         1 4XF      -0.018000
      9 C14          2.8240     0.8380     6.2140 ca         1 4XF      -0.322300
     10 C15          3.2190    -0.1220     5.2890 ca         1 4XF       0.738200
     11 N10          1.7060     1.0110     2.2510 ns         1 4XF      -0.517400
     12 N16          4.0190    -1.1830     5.6980 nv         1 4XF      -0.998500
     13 N17          2.8460    -0.0330     4.0210 nb         1 4XF      -0.773000
     14 H19         -0.3610     1.0210    -0.0130 hc         1 4XF       0.082033
     15 H18         -0.3610    -0.4990     0.8910 hc         1 4XF       0.082033
     16 H20         -0.3610    -0.5220    -0.8780 hc         1 4XF       0.082033
     17 H3           1.8920     0.8850    -0.5100 hx         1 4XF       0.123700
     18 H7           3.0190    -1.2390    -0.6250 hn         1 4XF       0.464467
     19 H5           1.6250    -2.0150    -0.2680 hn         1 4XF       0.464467
     20 H22          1.0280     2.7610     4.1070 ha         1 4XF       0.138000
     21 H23          1.7050     2.6530     6.4980 ha         1 4XF       0.155000
     22 H24          3.1360     0.7630     7.2490 ha         1 4XF       0.153000
     23 H21          1.2440     1.8230     1.8920 hn         1 4XF       0.342500
     24 H25          4.3120    -1.8730     5.0350 hn         1 4XF       0.449300
     25 H26          4.2990    -1.2590     6.6560 hn         1 4XF       0.449300
     26 H2           1.7530    -1.1610    -1.6560 hn         1 4XF       0.464467
@<TRIPOS>BOND
     1     9     8 ar  
     2     9    10 ar  
     3    12    10 1   
     4     8     7 ar  
     5    10    13 ar  
     6     7     6 ar  
     7    13     6 ar  
     8     6    11 1   
     9    11     4 1   
    10     5     4 2   
    11     4     2 1   
    12     2     1 1   
    13     2     3 1   
    14     1    14 1   
    15     1    15 1   
    16     1    16 1   
    17     2    17 1   
    18     3    18 1   
    19     3    19 1   
    20     7    20 1   
    21     8    21 1   
    22     9    22 1   
    23    11    23 1   
    24    12    24 1   
    25    12    25 1   
    26     3    26 1   
@<TRIPOS>SUBSTRUCTURE
     1 4XF         1 TEMP              0 ****  ****    0 ROOT
