@<TRIPOS>MOLECULE
4XF
   26    26     1     0     0
SMALL
bcc


@<TRIPOS>ATOM
      1 C1           0.0000     0.0000     0.0000 c3         1 4XF       0.003900
      2 C2           1.5310     0.0000     0.0000 c3         1 4XF      -0.169500
      3 N4           2.0210    -1.1990    -0.6920 nz         1 4XF       0.100400
      4 C8           2.0320     0.0000     1.4210 c          1 4XF       0.524100
      5 O9           2.7290    -0.9100     1.8180 o          1 4XF      -0.585100
      6 C11          2.0810     0.9590     3.5930 ca         1 4XF       0.357200
      7 C12          1.6510     1.9500     4.4640 ca         1 4XF      -0.308300
      8 C13          2.0270     1.8910     5.7970 ca         1 4XF       0.020000
      9 C14          2.8240     0.8380     6.2140 ca         1 4XF      -0.294300
     10 C15          3.2190    -0.1220     5.2890 ca         1 4XF       0.528200
     11 N10          1.7060     1.0110     2.2510 ns         1 4XF      -0.037400
     12 N16          4.0190    -1.1830     5.6980 nv         1 4XF      -0.505500
     13 N17          2.8460    -0.0330     4.0210 nb         1 4XF      -0.633000
     14 H19         -0.3610     1.0210    -0.0130 hc         1 4XF       0.040367
     15 H18         -0.3610    -0.4990     0.8910 hc         1 4XF       0.040367
     16 H20         -0.3610    -0.5220    -0.8780 hc         1 4XF       0.040367
     17 H3           1.8920     0.8850    -0.5100 hx         1 4XF       0.094700
     18 H7           3.0190    -1.2390    -0.6250 hn         1 4XF       0.229467
     19 H5           1.6250    -2.0150    -0.2680 hn         1 4XF       0.229467
     20 H22          1.0280     2.7610     4.1070 ha         1 4XF       0.119000
     21 H23          1.7050     2.6530     6.4980 ha         1 4XF       0.117000
     22 H24          3.1360     0.7630     7.2490 ha         1 4XF       0.130000
     23 H21          1.2440     1.8230     1.8920 hn         1 4XF       0.173500
     24 H25          4.3120    -1.8730     5.0350 hn         1 4XF       0.277300
     25 H26          4.2990    -1.2590     6.6560 hn         1 4XF       0.277300
     26 H2           1.7530    -1.1610    -1.6560 hn         1 4XF       0.229467
@<TRIPOS>BOND
     1     1     2 1   
     2     1    14 1   
     3     1    15 1   
     4     1    16 1   
     5     2     3 1   
     6     2     4 1   
     7     2    17 1   
     8     3    18 1   
     9     3    19 1   
    10     3    26 1   
    11     4     5 2   
    12     4    11 1   
    13     6     7 ar  
    14     6    11 1   
    15     6    13 ar  
    16     7     8 ar  
    17     7    20 1   
    18     8     9 ar  
    19     8    21 1   
    20     9    10 ar  
    21     9    22 1   
    22    10    12 1   
    23    10    13 ar  
    24    11    23 1   
    25    12    24 1   
    26    12    25 1   
@<TRIPOS>SUBSTRUCTURE
     1 4XF         1 TEMP              0 ****  ****    0 ROOT
