@<TRIPOS>MOLECULE
molecule
   40    41     1     0     0
SMALL
bcc


@<TRIPOS>ATOM
      1 CAK          0.0000     0.0000     0.0000 c3         1 4XG       0.153800
      2 CAH          1.5290     0.0000     0.0000 c3         1 4XG      -0.032100
      3 CAN          2.0440     0.0000     1.4170 ca         1 4XG      -0.019300
      4 CAF          3.3650     0.3570     1.6400 ca         1 4XG      -0.188000
      5 CAD          3.8820     0.3670     2.9210 ca         1 4XG      -0.080000
      6 CAE          3.0790     0.0200     3.9900 ca         1 4XG      -0.213000
      7 CAM          1.7570    -0.3350     3.7720 ca         1 4XG       0.209600
      8 NAC          0.9430    -0.6880     4.8510 nv         1 4XG      -0.925200
      9 CAO          1.2370    -0.3430     2.4790 ca         1 4XG      -0.154300
     10 CAL         -0.2080    -0.7260     2.2900 c3         1 4XG       0.218100
     11 NAQ         -0.4670    -1.0760     0.8890 n3         1 4XG      -0.718600
     12 CAJ         -1.8920    -1.3570     0.6720 c3         1 4XG       0.159800
     13 CAG         -2.0900    -1.9330    -0.7310 c3         1 4XG      -0.082400
     14 CAI         -3.5750    -2.2260    -0.9580 c3         1 4XG       0.160800
     15 NAP         -3.7650    -2.7790    -2.3050 n3         1 4XG      -0.730600
     16 CAB         -5.1310    -3.2910    -2.4760 c3         1 4XG       0.150600
     17 CAA         -3.4450    -1.7800    -3.3340 c3         1 4XG       0.150600
     18 H1          -0.3520     0.9510     0.3820 h1         1 4XG       0.040200
     19 H2          -0.3520    -0.1960    -1.0060 h1         1 4XG       0.040200
     20 H3           1.8760    -0.8990    -0.4960 hc         1 4XG       0.059700
     21 H4           1.8760     0.8990    -0.4960 hc         1 4XG       0.059700
     22 H5           3.9970     0.6300     0.8030 ha         1 4XG       0.127000
     23 H6           4.9160     0.6460     3.0860 ha         1 4XG       0.127000
     24 H7           3.4810     0.0270     4.9960 ha         1 4XG       0.127000
     25 H8           1.3420    -0.8020     5.7620 hn         1 4XG       0.428800
     26 H9          -0.0370    -0.8320     4.7130 hn         1 4XG       0.428800
     27 H10         -0.4360    -1.5780     2.9180 h1         1 4XG       0.035700
     28 H11         -0.8370     0.1100     2.5700 h1         1 4XG       0.035700
     29 H13         -2.2350    -2.0740     1.4080 h1         1 4XG       0.031200
     30 H14         -2.4600    -0.4400     0.7690 h1         1 4XG       0.031200
     31 H15         -1.5220    -2.8500    -0.8280 hc         1 4XG       0.058200
     32 H16         -1.7470    -1.2160    -1.4670 hc         1 4XG       0.058200
     33 H17         -3.9180    -2.9420    -0.2220 h1         1 4XG       0.031200
     34 H18         -4.1420    -1.3080    -0.8610 h1         1 4XG       0.031200
     35 H20         -5.8370    -2.4750    -2.3830 h1         1 4XG       0.031533
     36 H21         -5.3350    -4.0350    -1.7150 h1         1 4XG       0.031533
     37 H22         -5.2270    -3.7420    -3.4570 h1         1 4XG       0.031533
     38 H23         -3.7310    -0.7960    -2.9840 h1         1 4XG       0.031533
     39 H24         -3.9880    -2.0120    -4.2430 h1         1 4XG       0.031533
     40 H25         -2.3810    -1.7970    -3.5350 h1         1 4XG       0.031533
@<TRIPOS>BOND
     1     6     5 ar  
     2     6     7 ar  
     3     5     4 ar  
     4     8     7 1   
     5     7     9 ar  
     6     4     3 ar  
     7     9     3 ar  
     8     9    10 1   
     9     3     2 1   
    10    10    11 1   
    11     2     1 1   
    12     1    11 1   
    13    11    12 1   
    14    12    13 1   
    15    13    14 1   
    16    14    15 1   
    17    15    16 1   
    18    15    17 1   
    19     1    18 1   
    20     1    19 1   
    21     2    20 1   
    22     2    21 1   
    23     4    22 1   
    24     5    23 1   
    25     6    24 1   
    26     8    25 1   
    27     8    26 1   
    28    10    27 1   
    29    10    28 1   
    30    12    29 1   
    31    12    30 1   
    32    13    31 1   
    33    13    32 1   
    34    14    33 1   
    35    14    34 1   
    36    16    35 1   
    37    16    36 1   
    38    16    37 1   
    39    17    38 1   
    40    17    39 1   
    41    17    40 1   
@<TRIPOS>SUBSTRUCTURE
     1 4XG         1 TEMP              0 ****  ****    0 ROOT
