@<TRIPOS>MOLECULE
4XH
   17    18     1     0     0
SMALL
bcc


@<TRIPOS>ATOM
      1 C1         -0.0190    0.0000   -0.0190 ca        1 4XH     -0.129000
      2 C2          3.4190   -0.0010    3.6530 ca        1 4XH     -0.243300
      3 C3          2.0480   -0.0010    3.6830 ca        1 4XH     -0.081000
      4 C4          1.3520    0.0000   -0.0060 ca        1 4XH     -0.150300
      5 C5         -0.7560   -0.0000    1.1860 ca        1 4XH     -0.097000
      6 C6          4.0760   -0.0000    2.3820 ca        1 4XH      0.414200
      7 C7          1.3130   -0.0010    2.4600 ca        1 4XH     -0.126300
      8 C8          2.0590   -0.0000    1.2390 ca        1 4XH      0.393600
      9 C9         -0.1080   -0.0010    2.4020 ca        1 4XH     -0.008900
     10 N10         3.4430    0.0000    1.2240 nb        1 4XH     -0.656000
     11 BR         -1.1420   -0.0010    3.9710 br        1 4XH     -0.088100
     12 H1         -0.5680    0.0000   -0.9740 ha        1 4XH      0.142000
     13 H4          1.9260    0.0010   -0.9470 ha        1 4XH      0.155000
     14 H5         -1.8570   -0.0000    1.1300 ha        1 4XH      0.149000
     15 H2          4.0190   -0.0010    4.5720 ha        1 4XH      0.147000
     16 H3          1.5060   -0.0010    4.6420 ha        1 4XH      0.153000
     17 H6          5.1810   -0.0000    2.3360 h4        1 4XH      0.025100
@<TRIPOS>BOND
     1    1    4 ar  
     2    1    5 ar  
     3    1   12 1   
     4    2    3 ar  
     5    2    6 ar  
     6    2   15 1   
     7    3    7 ar  
     8    3   16 1   
     9    4    8 ar  
    10    4   13 1   
    11    5    9 ar  
    12    5   14 1   
    13    6   10 ar  
    14    6   17 1   
    15    7    8 ar  
    16    7    9 ar  
    17    8   10 ar  
    18    9   11 1   
@<TRIPOS>SUBSTRUCTURE
     1 4XH         1 TEMP              0 ****  ****    0 ROOT
