@<TRIPOS>MOLECULE
molecule
   17    18     1     0     0
SMALL
bcc


@<TRIPOS>ATOM
      1 C1           0.0000     0.0000     0.0000 ca         1 4XH      -0.124000
      2 C2           3.3900    -0.0010     3.6140 ca         1 4XH      -0.251300
      3 C3           2.0250    -0.0000     3.6530 ca         1 4XH      -0.079000
      4 C4           1.3610     0.0000     0.0000 ca         1 4XH      -0.149300
      5 C5          -0.7190    -0.0010     1.1920 ca         1 4XH      -0.095000
      6 C6           4.0500    -0.0000     2.3870 ca         1 4XH       0.434200
      7 C7           1.3260     0.0000     2.4330 ca         1 4XH      -0.140300
      8 C8           2.0580     0.0000     1.2200 ca         1 4XH       0.419600
      9 C9          -0.0790     0.0000     2.3940 ca         1 4XH      -0.003900
     10 N10          3.3960    -0.0000     1.2510 nb         1 4XH      -0.678000
     11 Br          -1.0740    -0.0000     4.0030 br         1 4XH      -0.092100
     12 H1          -0.5330    -0.0010    -0.9430 ha         1 4XH       0.140000
     13 H4           1.9050     0.0010    -0.9370 ha         1 4XH       0.153000
     14 H5          -1.8020    -0.0010     1.1630 ha         1 4XH       0.145000
     15 H2           3.9590    -0.0010     4.5360 ha         1 4XH       0.141000
     16 H3           1.4960    -0.0010     4.5980 ha         1 4XH       0.156000
     17 H6           5.1330    -0.0010     2.3710 h4         1 4XH       0.025100
@<TRIPOS>BOND
     1     1     4 ar
     2     1     5 ar
     3     2     3 ar
     4     2     6 ar
     5     3     7 ar
     6     4     8 ar
     7     5     9 ar
     8     6    10 ar
     9     7     8 ar
    10     7     9 ar
    11     8    10 ar
    12     9    11 1
    13     1    12 1
    14     4    13 1
    15     5    14 1
    16     2    15 1
    17     3    16 1
    18     6    17 1
@<TRIPOS>SUBSTRUCTURE
     1 4XH         1 TEMP              0 ****  ****    0 ROOT
