@<TRIPOS>MOLECULE
4XJ
   40    41     1     0     0
SMALL
bcc


@<TRIPOS>ATOM
      1 C3           0.0000     0.0000     0.0000 c3         1 4XJ       0.242700
      2 CAI          3.7000     2.4110     1.3640 c3         1 4XJ       0.133800
      3 CAG          3.8300     3.6660     0.5010 c3         1 4XJ       0.035900
      4 CAM          5.1340     3.6420    -0.2520 ca         1 4XJ      -0.056300
      5 CAE          5.6030     4.8270    -0.8010 ca         1 4XJ      -0.119000
      6 CAC          6.7930     4.8520    -1.5020 ca         1 4XJ      -0.089000
      7 CAD          7.5240     3.6910    -1.6600 ca         1 4XJ      -0.130000
      8 CAL          7.0590     2.5040    -1.1110 ca         1 4XJ       0.036600
      9 NAB          7.7970     1.3280    -1.2710 nv         1 4XJ      -0.542200
     10 CAN          5.8600     2.4810    -0.4030 ca         1 4XJ      -0.102300
     11 CAJ          5.3990     1.1730     0.1850 c3         1 4XJ       0.205100
     12 NAO          3.9730     1.2350     0.5220 n3         1 4XJ      -0.507600
     13 CAH          3.5350    -0.0000     1.1860 c3         1 4XJ       0.122500
     14 C1           2.0100     0.0000     1.3050 c3         1 4XJ       0.203900
     15 O2           1.4300     0.0000     0.0000 os         1 4XJ      -0.370100
     16 CAF          3.9820    -1.2080     0.3590 c3         1 4XJ       0.203900
     17 OAK          3.3110    -1.1970    -0.9020 os         1 4XJ      -0.370100
     18 CAA          3.6580    -2.2900    -1.7550 c3         1 4XJ       0.242700
     19 H1          -0.3610     0.0140    -1.0210 h1         1 4XJ      -0.016300
     20 H2          -0.3610     0.8780     0.5220 h1         1 4XJ      -0.016300
     21 H3          -0.3610    -0.8910     0.4990 h1         1 4XJ      -0.016300
     22 H4           2.6870     2.3460     1.7410 h1         1 4XJ       0.014700
     23 H5           4.4350     2.4530     2.1590 h1         1 4XJ       0.014700
     24 H6           3.0160     3.6810    -0.2150 hc         1 4XJ       0.027700
     25 H7           3.8180     4.5350     1.1480 hc         1 4XJ       0.027700
     26 H8           5.0320     5.7390    -0.6780 ha         1 4XJ       0.103000
     27 H9           7.1510     5.7810    -1.9290 ha         1 4XJ       0.099000
     28 H10          8.4570     3.7070    -2.2100 ha         1 4XJ       0.107000
     29 H11          7.4200     0.5700    -1.8030 hn         1 4XJ       0.271300
     30 H12          8.6860     1.2300    -0.8210 hn         1 4XJ       0.271300
     31 H13          5.5600     0.3820    -0.5370 h1         1 4XJ       0.019200
     32 H14          5.9690     0.9660     1.0840 h1         1 4XJ       0.019200
     33 H16          3.9750    -0.0560     2.1740 h1         1 4XJ       0.014700
     34 H17          1.6900     0.8850     1.8430 h1         1 4XJ      -0.008050
     35 H18          1.6900    -0.8840     1.8430 h1         1 4XJ      -0.008050
     36 H19          5.0520    -1.1610     0.2000 h1         1 4XJ      -0.008050
     37 H20          3.7360    -2.1200     0.8910 h1         1 4XJ      -0.008050
     38 H21          3.2840    -3.2130    -1.3300 h1         1 4XJ      -0.016300
     39 H22          3.2180    -2.1380    -2.7340 h1         1 4XJ      -0.016300
     40 H23          4.7360    -2.3460    -1.8490 h1         1 4XJ      -0.016300
@<TRIPOS>BOND
     1     1    15 1   
     2     1    19 1   
     3     1    20 1   
     4     1    21 1   
     5     2     3 1   
     6     2    12 1   
     7     2    22 1   
     8     2    23 1   
     9     3     4 1   
    10     3    24 1   
    11     3    25 1   
    12     4     5 ar  
    13     4    10 ar  
    14     5     6 ar  
    15     5    26 1   
    16     6     7 ar  
    17     6    27 1   
    18     7     8 ar  
    19     7    28 1   
    20     8     9 1   
    21     8    10 ar  
    22     9    29 1   
    23     9    30 1   
    24    10    11 1   
    25    11    12 1   
    26    11    31 1   
    27    11    32 1   
    28    12    13 1   
    29    13    14 1   
    30    13    16 1   
    31    13    33 1   
    32    14    15 1   
    33    14    34 1   
    34    14    35 1   
    35    16    17 1   
    36    16    36 1   
    37    16    37 1   
    38    17    18 1   
    39    18    38 1   
    40    18    39 1   
    41    18    40 1   
@<TRIPOS>SUBSTRUCTURE
     1 4XJ         1 TEMP              0 ****  ****    0 ROOT
