@<TRIPOS>MOLECULE
molecule
   40    41     1     0     0
SMALL
bcc


@<TRIPOS>ATOM
      1 C3           0.0000     0.0000     0.0000 c3         1 4XJ       0.123200
      2 CAI          3.7000     2.4110     1.3640 c3         1 4XJ       0.152800
      3 CAG          3.8300     3.6660     0.5010 c3         1 4XJ      -0.030100
      4 CAM          5.1340     3.6420    -0.2520 ca         1 4XJ      -0.052300
      5 CAE          5.6030     4.8270    -0.8010 ca         1 4XJ      -0.147000
      6 CAC          6.7930     4.8520    -1.5020 ca         1 4XJ      -0.117000
      7 CAD          7.5240     3.6910    -1.6600 ca         1 4XJ      -0.157000
      8 CAL          7.0590     2.5040    -1.1110 ca         1 4XJ       0.171600
      9 NAB          7.7970     1.3280    -1.2710 nv         1 4XJ      -0.980200
     10 CAN          5.8600     2.4810    -0.4030 ca         1 4XJ      -0.098300
     11 CAJ          5.3990     1.1730     0.1850 c3         1 4XJ       0.215100
     12 NAO          3.9730     1.2350     0.5220 n3         1 4XJ      -0.697600
     13 CAH          3.5350    -0.0000     1.1860 c3         1 4XJ       0.176500
     14 C1           2.0100     0.0000     1.3050 c3         1 4XJ       0.144400
     15 O2           1.4300     0.0000     0.0000 os         1 4XJ      -0.379100
     16 CAF          3.9820    -1.2080     0.3590 c3         1 4XJ       0.144400
     17 OAK          3.3110    -1.1970    -0.9020 os         1 4XJ      -0.379100
     18 CAA          3.6580    -2.2900    -1.7550 c3         1 4XJ       0.123200
     19 H1          -0.3610     0.0140    -1.0210 h1         1 4XJ       0.025033
     20 H2          -0.3610     0.8780     0.5220 h1         1 4XJ       0.025033
     21 H3          -0.3610    -0.8910     0.4990 h1         1 4XJ       0.025033
     22 H4           2.6870     2.3460     1.7410 h1         1 4XJ       0.036700
     23 H5           4.4350     2.4530     2.1590 h1         1 4XJ       0.036700
     24 H6           3.0160     3.6810    -0.2150 hc         1 4XJ       0.059700
     25 H7           3.8180     4.5350     1.1480 hc         1 4XJ       0.059700
     26 H8           5.0320     5.7390    -0.6780 ha         1 4XJ       0.127000
     27 H9           7.1510     5.7810    -1.9290 ha         1 4XJ       0.127000
     28 H10          8.4570     3.7070    -2.2100 ha         1 4XJ       0.132000
     29 H11          7.4200     0.5700    -1.8030 hn         1 4XJ       0.426300
     30 H12          8.6860     1.2300    -0.8210 hn         1 4XJ       0.426300
     31 H13          5.5600     0.3820    -0.5370 h1         1 4XJ       0.043200
     32 H14          5.9690     0.9660     1.0840 h1         1 4XJ       0.043200
     33 H16          3.9750    -0.0560     2.1740 h1         1 4XJ       0.033700
     34 H17          1.6900     0.8850     1.8430 h1         1 4XJ       0.020200
     35 H18          1.6900    -0.8840     1.8430 h1         1 4XJ       0.020200
     36 H19          5.0520    -1.1610     0.2000 h1         1 4XJ       0.020200
     37 H20          3.7360    -2.1200     0.8910 h1         1 4XJ       0.020200
     38 H21          3.2840    -3.2130    -1.3300 h1         1 4XJ       0.025033
     39 H22          3.2180    -2.1380    -2.7340 h1         1 4XJ       0.025033
     40 H23          4.7360    -2.3460    -1.8490 h1         1 4XJ       0.025033
@<TRIPOS>BOND
     1     7     6 ar
     2     7     8 ar
     3     6     5 ar
     4     9     8 1
     5     8    10 ar
     6     5     4 ar
     7    10     4 ar
     8    10    11 1
     9     4     3 1
    10    11    12 1
    11     3     2 1
    12     2    12 1
    13    15     1 1
    14    15    14 1
    15    18    17 1
    16    12    13 1
    17    16    13 1
    18    16    17 1
    19    13    14 1
    20     1    19 1
    21     1    20 1
    22     1    21 1
    23     2    22 1
    24     2    23 1
    25     3    24 1
    26     3    25 1
    27     5    26 1
    28     6    27 1
    29     7    28 1
    30     9    29 1
    31     9    30 1
    32    11    31 1
    33    11    32 1
    34    13    33 1
    35    14    34 1
    36    14    35 1
    37    16    36 1
    38    16    37 1
    39    18    38 1
    40    18    39 1
    41    18    40 1
@<TRIPOS>SUBSTRUCTURE
     1 4XJ         1 TEMP              0 ****  ****    0 ROOT
