@<TRIPOS>MOLECULE
4XK
   47    49     1     0     0
SMALL
bcc


@<TRIPOS>ATOM
      1 CAM          0.0000     0.0000     0.0000 c3         1 4XK       0.151800
      2 CAI          1.5280     0.0000     0.0000 c3         1 4XK       0.039900
      3 CAS          2.0430     0.0000     1.4160 ca         1 4XK      -0.129300
      4 CAQ          3.3720    -0.3560     1.6400 ca         1 4XK       0.046600
      5 NAA          4.1900    -0.7070     0.5640 nv         1 4XK      -0.486200
      6 CAC          3.8840    -0.3630     2.9300 ca         1 4XK      -0.166000
      7 CAB          3.0710    -0.0140     3.9910 ca         1 4XK      -0.067000
      8 CAD          1.7560     0.3360     3.7660 ca         1 4XK      -0.143000
      9 CAR          1.2370     0.3430     2.4790 ca         1 4XK      -0.046300
     10 CAN         -0.2070     0.7240     2.2900 c3         1 4XK       0.205100
     11 NAU         -0.4670     1.0750     0.8900 n3         1 4XK      -0.536600
     12 CAL         -1.8930     1.3550     0.6730 c3         1 4XK       0.157800
     13 CAE         -2.2810     2.6300     1.4250 c3         1 4XK      -0.045400
     14 CAF         -3.7660     2.9220     1.2000 c3         1 4XK       0.210400
     15 OAP         -4.1290     4.1130     1.9010 os         1 4XK      -0.404600
     16 CAT         -5.5030     4.4770     1.7560 c3         1 4XK       0.184100
     17 CAJ         -5.6430     6.0000     1.8510 c3         1 4XK      -0.086900
     18 CAG         -7.1250     6.3740     1.7740 c3         1 4XK       0.219900
     19 OAO         -7.8370     5.7150     2.8220 os         1 4XK      -0.408600
     20 CAH         -7.7820     4.2880     2.7570 c3         1 4XK       0.219900
     21 CAK         -6.3260     3.8300     2.8740 c3         1 4XK      -0.086900
     22 H1          -0.3520    -0.9510     0.3810 h1         1 4XK       0.012200
     23 H2          -0.3520     0.1970    -1.0050 h1         1 4XK       0.012200
     24 H3           1.8750     0.8990    -0.4960 hc         1 4XK       0.023700
     25 H4           1.8750    -0.8990    -0.4960 hc         1 4XK       0.023700
     26 H5           4.1280    -0.2020    -0.2970 hn         1 4XK       0.268800
     27 H6           4.8540    -1.4500     0.6620 hn         1 4XK       0.268800
     28 H7           4.9170    -0.6380     3.1030 ha         1 4XK       0.107000
     29 H8           3.4670    -0.0170     5.0000 ha         1 4XK       0.098000
     30 H9           1.1220     0.6090     4.6010 ha         1 4XK       0.104000
     31 H10         -0.4360     1.5750     2.9190 h1         1 4XK       0.019700
     32 H11         -0.8360    -0.1140     2.5690 h1         1 4XK       0.019700
     33 H13         -2.4850     0.5250     1.0410 h1         1 4XK       0.007700
     34 H14         -2.0780     1.4900    -0.3860 h1         1 4XK       0.007700
     35 H15         -1.6900     3.4600     1.0570 hc         1 4XK       0.032700
     36 H16         -2.0960     2.4960     2.4840 hc         1 4XK       0.032700
     37 H17         -4.3570     2.0920     1.5680 h1         1 4XK      -0.010800
     38 H18         -3.9510     3.0560     0.1410 h1         1 4XK      -0.010800
     39 H19         -5.8730     4.1410     0.7950 h1         1 4XK       0.006700
     40 H20         -5.1100     6.4630     1.0300 hc         1 4XK       0.031450
     41 H21         -5.2330     6.3420     2.7940 hc         1 4XK       0.031450
     42 H22         -7.2320     7.4470     1.8850 h1         1 4XK       0.006200
     43 H23         -7.5250     6.0640     0.8160 h1         1 4XK       0.006200
     44 H24         -8.1890     3.9550     1.8100 h1         1 4XK       0.006200
     45 H25         -8.3590     3.8680     3.5720 h1         1 4XK       0.006200
     46 H26         -5.9290     4.1320     3.8360 hc         1 4XK       0.031450
     47 H27         -6.2790     2.7520     2.7790 hc         1 4XK       0.031450
@<TRIPOS>BOND
     1     1     2 1   
     2     1    11 1   
     3     1    22 1   
     4     1    23 1   
     5     2     3 1   
     6     2    24 1   
     7     2    25 1   
     8     3     4 ar  
     9     3     9 ar  
    10     4     5 1   
    11     4     6 ar  
    12     5    26 1   
    13     5    27 1   
    14     6     7 ar  
    15     6    28 1   
    16     7     8 ar  
    17     7    29 1   
    18     8     9 ar  
    19     8    30 1   
    20     9    10 1   
    21    10    11 1   
    22    10    31 1   
    23    10    32 1   
    24    11    12 1   
    25    12    13 1   
    26    12    33 1   
    27    12    34 1   
    28    13    14 1   
    29    13    35 1   
    30    13    36 1   
    31    14    15 1   
    32    14    37 1   
    33    14    38 1   
    34    15    16 1   
    35    16    17 1   
    36    16    21 1   
    37    16    39 1   
    38    17    18 1   
    39    17    40 1   
    40    17    41 1   
    41    18    19 1   
    42    18    42 1   
    43    18    43 1   
    44    19    20 1   
    45    20    21 1   
    46    20    44 1   
    47    20    45 1   
    48    21    46 1   
    49    21    47 1   
@<TRIPOS>SUBSTRUCTURE
     1 4XK         1 TEMP              0 ****  ****    0 ROOT
