@<TRIPOS>MOLECULE
molecule
   47    49     1     0     0
SMALL
bcc


@<TRIPOS>ATOM
      1 CAM          0.0000     0.0000     0.0000 c3         1 4XK       0.160800
      2 CAI          1.5280     0.0000     0.0000 c3         1 4XK      -0.026100
      3 CAS          2.0430     0.0000     1.4160 ca         1 4XK      -0.122300
      4 CAQ          3.3720    -0.3560     1.6400 ca         1 4XK       0.189600
      5 NAA          4.1900    -0.7070     0.5640 nv         1 4XK      -0.946200
      6 CAC          3.8840    -0.3630     2.9300 ca         1 4XK      -0.188000
      7 CAB          3.0710    -0.0140     3.9910 ca         1 4XK      -0.097000
      8 CAD          1.7560     0.3360     3.7660 ca         1 4XK      -0.166000
      9 CAR          1.2370     0.3430     2.4790 ca         1 4XK      -0.044300
     10 CAN         -0.2070     0.7240     2.2900 c3         1 4XK       0.206100
     11 NAU         -0.4670     1.0750     0.8900 n3         1 4XK      -0.721600
     12 CAL         -1.8930     1.3550     0.6730 c3         1 4XK       0.162800
     13 CAE         -2.2810     2.6300     1.4250 c3         1 4XK      -0.082400
     14 CAF         -3.7660     2.9220     1.2000 c3         1 4XK       0.136400
     15 OAP         -4.1290     4.1130     1.9010 os         1 4XK      -0.421600
     16 CAT         -5.5030     4.4770     1.7560 c3         1 4XK       0.147100
     17 CAJ         -5.6430     6.0000     1.8510 c3         1 4XK      -0.129400
     18 CAG         -7.1250     6.3740     1.7740 c3         1 4XK       0.139400
     19 OAO         -7.8370     5.7150     2.8220 os         1 4XK      -0.420600
     20 CAH         -7.7820     4.2880     2.7570 c3         1 4XK       0.139400
     21 CAK         -6.3260     3.8300     2.8740 c3         1 4XK      -0.129400
     22 H1          -0.3520    -0.9510     0.3810 h1         1 4XK       0.037700
     23 H2          -0.3520     0.1970    -1.0050 h1         1 4XK       0.037700
     24 H3           1.8750     0.8990    -0.4960 hc         1 4XK       0.055700
     25 H4           1.8750    -0.8990    -0.4960 hc         1 4XK       0.055700
     26 H5           4.1280    -0.2020    -0.2970 hn         1 4XK       0.428300
     27 H6           4.8540    -1.4500     0.6620 hn         1 4XK       0.428300
     28 H7           4.9170    -0.6380     3.1030 ha         1 4XK       0.130000
     29 H8           3.4670    -0.0170     5.0000 ha         1 4XK       0.128000
     30 H9           1.1220     0.6090     4.6010 ha         1 4XK       0.127000
     31 H10         -0.4360     1.5750     2.9190 h1         1 4XK       0.046700
     32 H11         -0.8360    -0.1140     2.5690 h1         1 4XK       0.046700
     33 H13         -2.4850     0.5250     1.0410 h1         1 4XK       0.032700
     34 H14         -2.0780     1.4900    -0.3860 h1         1 4XK       0.032700
     35 H15         -1.6900     3.4600     1.0570 hc         1 4XK       0.062200
     36 H16         -2.0960     2.4960     2.4840 hc         1 4XK       0.062200
     37 H17         -4.3570     2.0920     1.5680 h1         1 4XK       0.021200
     38 H18         -3.9510     3.0560     0.1410 h1         1 4XK       0.021200
     39 H19         -5.8730     4.1410     0.7950 h1         1 4XK       0.032700
     40 H20         -5.1100     6.4630     1.0300 hc         1 4XK       0.060450
     41 H21         -5.2330     6.3420     2.7940 hc         1 4XK       0.060450
     42 H22         -7.2320     7.4470     1.8850 h1         1 4XK       0.046700
     43 H23         -7.5250     6.0640     0.8160 h1         1 4XK       0.046700
     44 H24         -8.1890     3.9550     1.8100 h1         1 4XK       0.046700
     45 H25         -8.3590     3.8680     3.5720 h1         1 4XK       0.046700
     46 H26         -5.9290     4.1320     3.8360 hc         1 4XK       0.060450
     47 H27         -6.2790     2.7520     2.7790 hc         1 4XK       0.060450
@<TRIPOS>BOND
     1     6     7 ar  
     2     6     4 ar  
     3     5     4 1   
     4     7     8 ar  
     5     4     3 ar  
     6     8     9 ar  
     7     3     9 ar  
     8     3     2 1   
     9     9    10 1   
    10     2     1 1   
    11    10    11 1   
    12     1    11 1   
    13    11    12 1   
    14    12    13 1   
    15    13    14 1   
    16    15    14 1   
    17    15    16 1   
    18    21    16 1   
    19    21    20 1   
    20    16    17 1   
    21    20    19 1   
    22    17    18 1   
    23    19    18 1   
    24     1    22 1   
    25     1    23 1   
    26     2    24 1   
    27     2    25 1   
    28     5    26 1   
    29     5    27 1   
    30     6    28 1   
    31     7    29 1   
    32     8    30 1   
    33    10    31 1   
    34    10    32 1   
    35    12    33 1   
    36    12    34 1   
    37    13    35 1   
    38    13    36 1   
    39    14    37 1   
    40    14    38 1   
    41    16    39 1   
    42    17    40 1   
    43    17    41 1   
    44    18    42 1   
    45    18    43 1   
    46    20    44 1   
    47    20    45 1   
    48    21    46 1   
    49    21    47 1   
@<TRIPOS>SUBSTRUCTURE
     1 4XK         1 TEMP              0 ****  ****    0 ROOT
