@<TRIPOS>MOLECULE
molecule
   45    47     1     0     0
SMALL
bcc


@<TRIPOS>ATOM
      1 CAM          0.0000     0.0000     0.0000 c3         1 4XL       0.153800
      2 CAH          1.5280     0.0000     0.0000 c3         1 4XL      -0.032100
      3 CAQ          2.0430     0.0000     1.4170 ca         1 4XL      -0.028300
      4 CAD          3.3640     0.3570     1.6410 ca         1 4XL      -0.178000
      5 CAB          3.8800     0.3680     2.9220 ca         1 4XL      -0.088000
      6 CAC          3.0780     0.0220     3.9910 ca         1 4XL      -0.201000
      7 CAP          1.7550    -0.3340     3.7720 ca         1 4XL       0.199600
      8 NAA          0.9410    -0.6850     4.8510 nv         1 4XL      -0.936200
      9 CAR          1.2350    -0.3420     2.4790 ca         1 4XL      -0.141300
     10 CAN         -0.2090    -0.7240     2.2890 c3         1 4XL       0.218100
     11 NAT         -0.4680    -1.0750     0.8900 n3         1 4XL      -0.719600
     12 CAJ         -1.8930    -1.3560     0.6720 c3         1 4XL       0.160800
     13 CAE         -2.0920    -1.9330    -0.7310 c3         1 4XL      -0.083400
     14 CAI         -3.5760    -2.2250    -0.9580 c3         1 4XL       0.161800
     15 NAS         -3.7660    -2.7790    -2.3050 n3         1 4XL      -0.726600
     16 CAK         -5.1330    -3.2910    -2.4760 c3         1 4XL       0.122800
     17 CAF         -5.2690    -3.9110    -3.8700 c3         1 4XL       0.139400
     18 OAO         -4.9300    -2.9330    -4.8560 os         1 4XL      -0.425600
     19 CAG         -3.6060    -2.4130    -4.7200 c3         1 4XL       0.139400
     20 CAL         -3.4520    -1.7780    -3.3360 c3         1 4XL       0.122800
     21 H1          -0.3520    -0.1970    -1.0050 h1         1 4XL       0.039700
     22 H2          -0.3520     0.9510     0.3810 h1         1 4XL       0.039700
     23 H3           1.8760    -0.8990    -0.4950 hc         1 4XL       0.059700
     24 H4           1.8760     0.8990    -0.4950 hc         1 4XL       0.059700
     25 H5           3.9960     0.6290     0.8050 ha         1 4XL       0.127000
     26 H6           4.9140     0.6470     3.0880 ha         1 4XL       0.127000
     27 H7           3.4790     0.0290     4.9970 ha         1 4XL       0.129000
     28 H8          -0.0420    -0.5020     4.8170 hn         1 4XL       0.427800
     29 H9           1.3470    -1.0830     5.6750 hn         1 4XL       0.427800
     30 H10         -0.8390     0.1120     2.5690 h1         1 4XL       0.037700
     31 H11         -0.4380    -1.5760     2.9180 h1         1 4XL       0.037700
     32 H13         -2.2370    -2.0720     1.4080 h1         1 4XL       0.031700
     33 H14         -2.4610    -0.4390     0.7690 h1         1 4XL       0.031700
     34 H15         -1.7480    -1.2170    -1.4680 hc         1 4XL       0.057700
     35 H16         -1.5240    -2.8510    -0.8280 hc         1 4XL       0.057700
     36 H17         -3.9200    -2.9410    -0.2210 h1         1 4XL       0.033700
     37 H18         -4.1440    -1.3070    -0.8620 h1         1 4XL       0.033700
     38 H20         -5.8390    -2.4760    -2.3740 h1         1 4XL       0.042450
     39 H21         -5.3320    -4.0460    -1.7250 h1         1 4XL       0.042450
     40 H22         -4.5980    -4.7570    -3.9550 h1         1 4XL       0.053200
     41 H23         -6.2910    -4.2370    -4.0210 h1         1 4XL       0.053200
     42 H24         -2.8890    -3.2180    -4.8290 h1         1 4XL       0.053200
     43 H25         -3.4330    -1.6620    -5.4820 h1         1 4XL       0.053200
     44 H26         -2.4320    -1.4350    -3.2070 h1         1 4XL       0.042450
     45 H27         -4.1340    -0.9410    -3.2450 h1         1 4XL       0.042450
@<TRIPOS>BOND
     1     6     5 ar
     2     6     7 ar
     3     5     4 ar
     4     8     7 1
     5     7     9 ar
     6     4     3 ar
     7     9     3 ar
     8     9    10 1
     9     3     2 1
    10    10    11 1
    11     2     1 1
    12     1    11 1
    13    11    12 1
    14    12    13 1
    15    13    14 1
    16    14    15 1
    17    20    15 1
    18    20    19 1
    19    15    16 1
    20    19    18 1
    21    16    17 1
    22    17    18 1
    23     1    21 1
    24     1    22 1
    25     2    23 1
    26     2    24 1
    27     4    25 1
    28     5    26 1
    29     6    27 1
    30     8    28 1
    31     8    29 1
    32    10    30 1
    33    10    31 1
    34    12    32 1
    35    12    33 1
    36    13    34 1
    37    13    35 1
    38    14    36 1
    39    14    37 1
    40    16    38 1
    41    16    39 1
    42    17    40 1
    43    17    41 1
    44    19    42 1
    45    19    43 1
    46    20    44 1
    47    20    45 1
@<TRIPOS>SUBSTRUCTURE
     1 4XL         1 TEMP              0 ****  ****    0 ROOT
