@<TRIPOS>MOLECULE
4XL
   45    47     1     0     0
SMALL
bcc


@<TRIPOS>ATOM
      1 CAM          0.0000     0.0000     0.0000 c3         1 4XL       0.135800
      2 CAH          1.5280     0.0000     0.0000 c3         1 4XL       0.033900
      3 CAQ          2.0430     0.0000     1.4170 ca         1 4XL      -0.029300
      4 CAD          3.3640     0.3570     1.6410 ca         1 4XL      -0.156000
      5 CAB          3.8800     0.3680     2.9220 ca         1 4XL      -0.057000
      6 CAC          3.0780     0.0220     3.9910 ca         1 4XL      -0.180000
      7 CAP          1.7550    -0.3340     3.7720 ca         1 4XL       0.055600
      8 NAA          0.9410    -0.6850     4.8510 nv         1 4XL      -0.473200
      9 CAR          1.2350    -0.3420     2.4790 ca         1 4XL      -0.150300
     10 CAN         -0.2090    -0.7240     2.2890 c3         1 4XL       0.224100
     11 NAT         -0.4680    -1.0750     0.8900 n3         1 4XL      -0.532600
     12 CAJ         -1.8930    -1.3560     0.6720 c3         1 4XL       0.154800
     13 CAE         -2.0920    -1.9330    -0.7310 c3         1 4XL      -0.047400
     14 CAI         -3.5760    -2.2250    -0.9580 c3         1 4XL       0.155800
     15 NAS         -3.7660    -2.7790    -2.3050 n3         1 4XL      -0.536600
     16 CAK         -5.1330    -3.2910    -2.4760 c3         1 4XL       0.107800
     17 CAF         -5.2690    -3.9110    -3.8700 c3         1 4XL       0.214900
     18 OAO         -4.9300    -2.9330    -4.8560 os         1 4XL      -0.412600
     19 CAG         -3.6060    -2.4130    -4.7200 c3         1 4XL       0.214900
     20 CAL         -3.4520    -1.7780    -3.3360 c3         1 4XL       0.107800
     21 H1          -0.3520    -0.1970    -1.0050 h1         1 4XL       0.016700
     22 H2          -0.3520     0.9510     0.3810 h1         1 4XL       0.016700
     23 H3           1.8760    -0.8990    -0.4950 hc         1 4XL       0.027200
     24 H4           1.8760     0.8990    -0.4950 hc         1 4XL       0.027200
     25 H5           3.9960     0.6290     0.8050 ha         1 4XL       0.105000
     26 H6           4.9140     0.6470     3.0880 ha         1 4XL       0.098000
     27 H7           3.4790     0.0290     4.9970 ha         1 4XL       0.107000
     28 H8          -0.0420    -0.5020     4.8170 hn         1 4XL       0.267300
     29 H9           1.3470    -1.0830     5.6750 hn         1 4XL       0.267300
     30 H10         -0.8390     0.1120     2.5690 h1         1 4XL       0.009700
     31 H11         -0.4380    -1.5760     2.9180 h1         1 4XL       0.009700
     32 H13         -2.2370    -2.0720     1.4080 h1         1 4XL       0.006700
     33 H14         -2.4610    -0.4390     0.7690 h1         1 4XL       0.006700
     34 H15         -1.7480    -1.2170    -1.4680 hc         1 4XL       0.033200
     35 H16         -1.5240    -2.8510    -0.8280 hc         1 4XL       0.033200
     36 H17         -3.9200    -2.9410    -0.2210 h1         1 4XL       0.008700
     37 H18         -4.1440    -1.3070    -0.8620 h1         1 4XL       0.008700
     38 H20         -5.8390    -2.4760    -2.3740 h1         1 4XL       0.017450
     39 H21         -5.3320    -4.0460    -1.7250 h1         1 4XL       0.017450
     40 H22         -4.5980    -4.7570    -3.9550 h1         1 4XL       0.012700
     41 H23         -6.2910    -4.2370    -4.0210 h1         1 4XL       0.012700
     42 H24         -2.8890    -3.2180    -4.8290 h1         1 4XL       0.012700
     43 H25         -3.4330    -1.6620    -5.4820 h1         1 4XL       0.012700
     44 H26         -2.4320    -1.4350    -3.2070 h1         1 4XL       0.017450
     45 H27         -4.1340    -0.9410    -3.2450 h1         1 4XL       0.017450
@<TRIPOS>BOND
     1     1     2 1   
     2     1    11 1   
     3     1    21 1   
     4     1    22 1   
     5     2     3 1   
     6     2    23 1   
     7     2    24 1   
     8     3     4 ar  
     9     3     9 ar  
    10     4     5 ar  
    11     4    25 1   
    12     5     6 ar  
    13     5    26 1   
    14     6     7 ar  
    15     6    27 1   
    16     7     8 1   
    17     7     9 ar  
    18     8    28 1   
    19     8    29 1   
    20     9    10 1   
    21    10    11 1   
    22    10    30 1   
    23    10    31 1   
    24    11    12 1   
    25    12    13 1   
    26    12    32 1   
    27    12    33 1   
    28    13    14 1   
    29    13    34 1   
    30    13    35 1   
    31    14    15 1   
    32    14    36 1   
    33    14    37 1   
    34    15    16 1   
    35    15    20 1   
    36    16    17 1   
    37    16    38 1   
    38    16    39 1   
    39    17    18 1   
    40    17    40 1   
    41    17    41 1   
    42    18    19 1   
    43    19    20 1   
    44    19    42 1   
    45    19    43 1   
    46    20    44 1   
    47    20    45 1   
@<TRIPOS>SUBSTRUCTURE
     1 4XL         1 TEMP              0 ****  ****    0 ROOT
