@<TRIPOS>MOLECULE
molecule
   47    49     1     0     0
SMALL
bcc


@<TRIPOS>ATOM
      1 CAM          0.0000     0.0000     0.0000 c3         1 4XM       0.152800
      2 CAI          1.5290     0.0000     0.0000 c3         1 4XM      -0.032100
      3 CAR          2.0440     0.0000     1.4170 ca         1 4XM      -0.025300
      4 CAD          3.3650     0.3560     1.6410 ca         1 4XM      -0.180000
      5 CAB          3.8820     0.3660     2.9210 ca         1 4XM      -0.086000
      6 CAC          3.0800     0.0200     3.9900 ca         1 4XM      -0.202000
      7 CAQ          1.7570    -0.3360     3.7720 ca         1 4XM       0.201600
      8 NAA          0.9440    -0.6870     4.8510 nv         1 4XM      -0.933200
      9 CAS          1.2360    -0.3440     2.4790 ca         1 4XM      -0.147300
     10 CAN         -0.2080    -0.7250     2.2900 c3         1 4XM       0.218100
     11 NAU         -0.4670    -1.0760     0.8890 n3         1 4XM      -0.718600
     12 CAL         -1.8920    -1.3550     0.6720 c3         1 4XM       0.162800
     13 CAE         -2.0910    -1.9320    -0.7320 c3         1 4XM      -0.082400
     14 CAF         -3.5750    -2.2240    -0.9580 c3         1 4XM       0.137400
     15 OAP         -3.7600    -2.7630    -2.2680 os         1 4XM      -0.422600
     16 CAT         -5.1200    -3.0720    -2.5840 c3         1 4XM       0.147100
     17 CAJ         -5.1630    -4.2450    -3.5680 c3         1 4XM      -0.128900
     18 CAG         -6.6180    -4.5170    -3.9610 c3         1 4XM       0.139400
     19 OAO         -7.1870    -3.3350    -4.5250 os         1 4XM      -0.420600
     20 CAH         -7.2180    -2.2180    -3.6330 c3         1 4XM       0.139400
     21 CAK         -5.7870    -1.8530    -3.2280 c3         1 4XM      -0.128900
     22 H1          -0.3520     0.9510     0.3820 h1         1 4XM       0.041200
     23 H2          -0.3520    -0.1960    -1.0060 h1         1 4XM       0.041200
     24 H3           1.8760     0.8990    -0.4960 hc         1 4XM       0.060200
     25 H4           1.8760    -0.8990    -0.4950 hc         1 4XM       0.060200
     26 H5           3.9970     0.6280     0.8040 ha         1 4XM       0.127000
     27 H6           4.9160     0.6450     3.0870 ha         1 4XM       0.127000
     28 H7           3.4820     0.0270     4.9960 ha         1 4XM       0.129000
     29 H8           1.3510    -1.0760     5.6780 hn         1 4XM       0.427800
     30 H9          -0.0510    -0.6080     4.7740 hn         1 4XM       0.427800
     31 H10         -0.8370     0.1110     2.5700 h1         1 4XM       0.036700
     32 H11         -0.4370    -1.5780     2.9180 h1         1 4XM       0.036700
     33 H13         -2.4590    -0.4380     0.7690 h1         1 4XM       0.031700
     34 H14         -2.2360    -2.0720     1.4080 h1         1 4XM       0.031700
     35 H15         -1.5230    -2.8490    -0.8300 hc         1 4XM       0.063200
     36 H16         -1.7480    -1.2150    -1.4680 hc         1 4XM       0.063200
     37 H17         -3.9180    -2.9410    -0.2220 h1         1 4XM       0.021200
     38 H18         -4.1430    -1.3070    -0.8610 h1         1 4XM       0.021200
     39 H19         -5.6540    -3.3400    -1.6800 h1         1 4XM       0.032700
     40 H20         -4.7450    -5.1260    -3.0980 hc         1 4XM       0.060700
     41 H21         -4.5910    -3.9940    -4.4530 hc         1 4XM       0.060700
     42 H22         -6.6490    -5.3160    -4.6920 h1         1 4XM       0.046700
     43 H23         -7.1800    -4.8040    -3.0810 h1         1 4XM       0.046700
     44 H24         -7.7870    -2.4780    -2.7490 h1         1 4XM       0.046700
     45 H25         -7.6780    -1.3730    -4.1300 h1         1 4XM       0.046700
     46 H26         -5.8110    -1.0360    -2.5160 hc         1 4XM       0.060700
     47 H27         -5.2270    -1.5570    -4.1070 hc         1 4XM       0.060700
@<TRIPOS>BOND
     1     6     5 ar  
     2     6     7 ar  
     3     5     4 ar  
     4     8     7 1   
     5     7     9 ar  
     6     4     3 ar  
     7     9     3 ar  
     8     9    10 1   
     9     3     2 1   
    10    10    11 1   
    11     2     1 1   
    12     1    11 1   
    13    11    12 1   
    14    12    13 1   
    15    13    14 1   
    16    14    15 1   
    17    15    16 1   
    18    21    16 1   
    19    21    20 1   
    20    16    17 1   
    21    20    19 1   
    22    17    18 1   
    23    19    18 1   
    24     1    22 1   
    25     1    23 1   
    26     2    24 1   
    27     2    25 1   
    28     4    26 1   
    29     5    27 1   
    30     6    28 1   
    31     8    29 1   
    32     8    30 1   
    33    10    31 1   
    34    10    32 1   
    35    12    33 1   
    36    12    34 1   
    37    13    35 1   
    38    13    36 1   
    39    14    37 1   
    40    14    38 1   
    41    16    39 1   
    42    17    40 1   
    43    17    41 1   
    44    18    42 1   
    45    18    43 1   
    46    20    44 1   
    47    20    45 1   
    48    21    46 1   
    49    21    47 1   
@<TRIPOS>SUBSTRUCTURE
     1 4XM         1 TEMP              0 ****  ****    0 ROOT
