@<TRIPOS>MOLECULE
4XO
   45    48     1     0     0
SMALL
bcc


@<TRIPOS>ATOM
      1 C10        -0.0960   -0.3930   -0.0460 cc        1 4XO     -0.156000
      2 C11         1.5930    0.4490    1.2800 cd        1 4XO     -0.139100
      3 C14         1.2280    0.1480   -0.0520 cc        1 4XO     -0.021700
      4 C17        -2.1590    4.4870   10.2140 ca        1 4XO     -0.145000
      5 C18        -2.6380    5.5500   10.9730 ca        1 4XO     -0.076000
      6 N2         -1.6190    3.5040    7.4590 nb        1 4XO     -0.789000
      7 C9         -1.0830    3.4190    6.2180 ca        1 4XO      0.702900
      8 N01        -0.8500    2.3060    5.4840 nb        1 4XO     -0.784000
      9 C04        -1.2280    1.1210    6.1120 ca        1 4XO      0.905900
     10 N3         -1.8200    1.0560    7.3640 nb        1 4XO     -0.833000
     11 C12        -1.9690    2.2750    8.0140 ca        1 4XO      0.919900
     12 N4         -2.4800    2.2120    9.3170 nh        1 4XO     -0.719300
     13 C13        -3.9050    5.4860   11.5680 ca        1 4XO     -0.030000
     14 C02        -4.6950    4.3410   11.3950 ca        1 4XO     -0.076000
     15 C15        -4.2300    3.2790   10.6310 ca        1 4XO     -0.145000
     16 C01        -2.9530    3.3370   10.0240 ca        1 4XO      0.162600
     17 N5         -4.7810    7.4660   12.9790 n1        1 4XO     -0.360800
     18 N19         2.7020    0.5180   -2.1220 n1        1 4XO     -0.375800
     19 C16         2.0360    0.3510   -1.1820 cg        1 4XO      0.228500
     20 N0W         0.5300    0.1050    2.1020 na        1 4XO      0.041700
     21 C0X         0.4090    0.2060    3.4860 cc        1 4XO      0.021400
     22 C0V        -0.5230   -0.4140    1.2970 cd        1 4XO     -0.064300
     23 C0Y        -0.7920   -0.1800    4.0810 cd        1 4XO      0.075600
     24 C0Z        -1.8780   -0.7180    3.2780 cc        1 4XO     -0.094300
     25 C0C        -1.7310   -0.8300    1.9230 cd        1 4XO     -0.091000
     26 C7          1.5780    0.7390    4.2470 c3        1 4XO     -0.057800
     27 C8         -3.1370   -1.1480    3.9320 c3        1 4XO     -0.058800
     28 H1         -0.6680   -0.7230   -0.9080 ha        1 4XO      0.169000
     29 H2          2.5160    0.8800    1.6690 h4        1 4XO      0.185000
     30 H3         -1.1550    4.5610    9.7680 ha        1 4XO      0.152500
     31 H4         -2.0120    6.4450   11.1090 ha        1 4XO      0.149000
     32 H5         -1.4230   -0.9010    5.8800 hn        1 4XO      0.443800
     33 H6         -0.8030    4.3850    5.7430 h5        1 4XO      0.061100
     34 H7         -2.8900    1.3390    9.5820 hn        1 4XO      0.452800
     35 H8         -5.6910    4.2840   11.8620 ha        1 4XO      0.149000
     36 H9         -4.8690    2.3910   10.5060 ha        1 4XO      0.152500
     37 H10        -2.5270   -1.2320    1.2790 ha        1 4XO      0.155000
     38 H11         1.6170    1.8530    4.1440 hc        1 4XO      0.065700
     39 H12         1.5010    0.4860    5.3320 hc        1 4XO      0.065700
     40 H13         2.5380    0.3080    3.8640 hc        1 4XO      0.065700
     41 H14        -3.8950   -1.4600    3.1710 hc        1 4XO      0.050033
     42 H15        -2.9510   -2.0190    4.6100 hc        1 4XO      0.050033
     43 H16        -3.5770   -0.3140    4.5350 hc        1 4XO      0.050033
     44 N1         -0.9430   -0.1120    5.4900 nh        1 4XO     -0.693300
     45 C19        -4.3860    6.5740   12.3440 cg        1 4XO      0.233800
@<TRIPOS>BOND
     1    1    3 1   
     2    1   22 2   
     3    1   28 1   
     4    2    3 2   
     5    2   20 1   
     6    2   29 1   
     7    3   19 1   
     8    4    5 ar  
     9    4   16 ar  
    10    4   30 1   
    11    5   13 ar  
    12    5   31 1   
    13    6    7 ar  
    14    6   11 ar  
    15    7    8 ar  
    16    7   33 1   
    17    8    9 ar  
    18    9   10 ar  
    19    9   44 1   
    20   10   11 ar  
    21   11   12 1   
    22   12   16 1   
    23   12   34 1   
    24   13   14 ar  
    25   13   45 1   
    26   14   15 ar  
    27   14   35 1   
    28   15   16 ar  
    29   15   36 1   
    30   17   45 3   
    31   18   19 3   
    32   20   21 1   
    33   20   22 1   
    34   21   23 2   
    35   21   26 1   
    36   22   25 1   
    37   23   24 1   
    38   23   44 1   
    39   24   25 2   
    40   24   27 1   
    41   25   37 1   
    42   26   38 1   
    43   26   39 1   
    44   26   40 1   
    45   27   41 1   
    46   27   42 1   
    47   27   43 1   
    48   32   44 1   
@<TRIPOS>SUBSTRUCTURE
     1 4XO         1 TEMP              0 ****  ****    0 ROOT
