@<TRIPOS>MOLECULE
molecule
   29    30     1     0     0
SMALL
bcc


@<TRIPOS>ATOM
      1 C4           0.0000     0.0000     0.0000 c3         1 4XP      -0.075400
      2 C5           1.5300     0.0000     0.0000 c3         1 4XP      -0.091700
      3 C6           2.0320     0.0000     1.4200 cc         1 4XP       0.283100
      4 N1           3.0580    -0.4960     3.2600 na         1 4XP       0.123400
      5 C7           2.8940    -0.8850     1.9750 cd         1 4XP      -0.293100
      6 C8           3.9030    -1.1590     4.2560 c3         1 4XP       0.046600
      7 N2           2.3420     0.5550     3.4580 nd         1 4XP      -0.203300
      8 N3           1.7200     0.8780     2.3800 nc         1 4XP      -0.362500
      9 N4          -2.8180    -0.8780    -0.8270 nd         1 4XP      -0.362500
     10 C3          -0.5110    -0.0000    -1.4420 c3         1 4XP      -0.091700
     11 C2          -2.0180    -0.0010    -1.4420 cd         1 4XP       0.283100
     12 C1          -2.8280     0.8880    -2.0640 cc         1 4XP      -0.293100
     13 N5          -4.0420    -0.5560    -1.0530 nc         1 4XP      -0.203300
     14 N           -4.0940     0.4980    -1.7910 na         1 4XP       0.123400
     15 C           -5.3160     1.1610    -2.2560 c3         1 4XP       0.046600
     16 H1          -0.3610    -0.8840     0.5110 hc         1 4XP       0.065200
     17 H2          -0.3610     0.8850     0.5110 hc         1 4XP       0.065200
     18 H3           1.8910    -0.8850    -0.5110 hc         1 4XP       0.049450
     19 H4           1.8910     0.8850    -0.5110 hc         1 4XP       0.049450
     20 H5           3.5200    -1.5870     1.4370 h4         1 4XP       0.180000
     21 H6           3.7620    -0.6870     5.2210 h1         1 4XP       0.063867
     22 H7           4.9420    -1.0750     3.9610 h1         1 4XP       0.063867
     23 H8           3.6300    -2.2050     4.3230 h1         1 4XP       0.063867
     24 H9          -0.1500    -0.8850    -1.9530 hc         1 4XP       0.049450
     25 H10         -0.1510     0.8840    -1.9530 hc         1 4XP       0.049450
     26 H11         -2.5240     1.7390    -2.6600 h4         1 4XP       0.180000
     27 H12         -5.3350     2.1800    -1.8890 h1         1 4XP       0.063867
     28 H13         -5.3340     1.1660    -3.3390 h1         1 4XP       0.063867
     29 H14         -6.1810     0.6270    -1.8820 h1         1 4XP       0.063867
@<TRIPOS>BOND
     1    12    14 1
     2    12    11 2
     3    15    14 1
     4    10    11 1
     5    10     1 1
     6    14    13 1
     7    11     9 1
     8    13     9 2
     9     1     2 1
    10     2     3 1
    11     5     3 2
    12     5     4 1
    13     3     8 1
    14     4     6 1
    15     4     7 1
    16     8     7 2
    17     1    16 1
    18     1    17 1
    19     2    18 1
    20     2    19 1
    21     5    20 1
    22     6    21 1
    23     6    22 1
    24     6    23 1
    25    10    24 1
    26    10    25 1
    27    12    26 1
    28    15    27 1
    29    15    28 1
    30    15    29 1
@<TRIPOS>SUBSTRUCTURE
     1 4XP         1 TEMP              0 ****  ****    0 ROOT
