@<TRIPOS>MOLECULE
molecule
   47    48     1     0     0
SMALL
bcc


@<TRIPOS>ATOM
      1 C14          0.0000     0.0000     0.0000 c3         1 4XQ      -0.102400
      2 C15          1.5300     0.0000     0.0000 c3         1 4XQ       0.058800
      3 C16          2.8750    -0.8970     1.9210 cc         1 4XQ      -0.294600
      4 N6           2.0180     0.0000     1.3830 na         1 4XQ       0.124900
      5 C17          3.0520    -0.5230     3.2100 cd         1 4XQ       0.280100
      6 C18          3.9160    -1.2090     4.2370 c3         1 4XQ      -0.089700
      7 N7           2.3100     0.5750     3.3920 nd         1 4XQ      -0.364000
      8 C19          4.9060    -0.2010     4.8240 c3         1 4XQ      -0.077400
      9 C20          5.7830    -0.8970     5.8670 c3         1 4XQ      -0.086400
     10 C21          6.7740     0.1110     6.4550 c3         1 4XQ      -0.077400
     11 C22          7.6500    -0.5840     7.4970 c3         1 4XQ      -0.089700
     12 N8           1.7050     0.8550     2.2920 nc         1 4XQ      -0.204800
     13 C23          8.6260     0.4080     8.0760 cd         1 4XQ       0.280100
     14 C24          8.7980     0.7050     9.3860 cc         1 4XQ      -0.294600
     15 N9           9.7720     1.6430     9.4360 na         1 4XQ       0.124900
     16 C29         12.3680     2.7450    11.9670 c3         1 4XQ      -0.093100
     17 C30         11.8170     2.0900    10.6990 c3         1 4XQ      -0.102400
     18 N11         10.1550     1.8900     8.2310 nc         1 4XQ      -0.204800
     19 N12          9.4950     1.1650     7.3980 nd         1 4XQ      -0.364000
     20 C31         -0.5090    -0.0000    -1.4430 c3         1 4XQ      -0.093100
     21 H1          -0.3610     0.8850     0.5100 hc         1 4XQ       0.063700
     22 H2          -0.3610    -0.8840     0.5110 hc         1 4XQ       0.063700
     23 H3           1.8920    -0.8850    -0.5100 h1         1 4XQ       0.067700
     24 H4           1.8920     0.8850    -0.5100 h1         1 4XQ       0.067700
     25 H5           3.1470    -1.8550     1.4930 h4         1 4XQ       0.179000
     26 H6           4.4610    -2.0190     3.7680 hc         1 4XQ       0.050200
     27 H7           3.2910    -1.6050     5.0280 hc         1 4XQ       0.050200
     28 H8           4.3610     0.6090     5.2940 hc         1 4XQ       0.054700
     29 H9           5.5310     0.1950     4.0330 hc         1 4XQ       0.054700
     30 H10          5.1580    -1.2930     6.6590 hc         1 4XQ       0.037700
     31 H11          6.3280    -1.7070     5.3980 hc         1 4XQ       0.037700
     32 H12          7.3980     0.5070     5.6640 hc         1 4XQ       0.054700
     33 H13          6.2280     0.9210     6.9250 hc         1 4XQ       0.054700
     34 H14          8.1950    -1.3940     7.0280 hc         1 4XQ       0.050200
     35 H15          7.0250    -0.9800     8.2890 hc         1 4XQ       0.050200
     36 H16          8.4260     0.1280    10.2240 h4         1 4XQ       0.179000
     37 H17          9.8510     1.8060    11.5200 h1         1 4XQ       0.067700
     38 H18         10.0610     3.3280    10.6420 h1         1 4XQ       0.067700
     39 H19         11.9900     2.2210    12.8370 hc         1 4XQ       0.039200
     40 H20         13.4500     2.6960    11.9580 hc         1 4XQ       0.039200
     41 H21         12.0540     3.7810    12.0040 hc         1 4XQ       0.039200
     42 H22         12.2650     2.5550     9.8290 hc         1 4XQ       0.063700
     43 H23         12.0550     1.0330    10.7060 hc         1 4XQ       0.063700
     44 H24         -0.2240    -0.9270    -1.9270 hc         1 4XQ       0.039200
     45 H25         -1.5880     0.0910    -1.4460 hc         1 4XQ       0.039200
     46 H26         -0.0750     0.8350    -1.9790 hc         1 4XQ       0.039200
     47 C25         10.2990     2.2710    10.6500 c3         1 4XQ       0.058800
@<TRIPOS>BOND
     1    17    47 1
     2    17    16 1
     3    47    15 1
     4    15    14 1
     5    15    18 1
     6    14    13 2
     7    18    19 2
     8    19    13 1
     9    13    11 1
    10    20     1 1
    11    11    10 1
    12    10     9 1
    13     2     1 1
    14     2     4 1
    15     9     8 1
    16     4     3 1
    17     4    12 1
    18     3     5 2
    19    12     7 2
    20     8     6 1
    21     5     7 1
    22     5     6 1
    23     1    21 1
    24     1    22 1
    25     2    23 1
    26     2    24 1
    27     3    25 1
    28     6    26 1
    29     6    27 1
    30     8    28 1
    31     8    29 1
    32     9    30 1
    33     9    31 1
    34    10    32 1
    35    10    33 1
    36    11    34 1
    37    11    35 1
    38    14    36 1
    39    47    37 1
    40    47    38 1
    41    16    39 1
    42    16    40 1
    43    16    41 1
    44    17    42 1
    45    17    43 1
    46    20    44 1
    47    20    45 1
    48    20    46 1
@<TRIPOS>SUBSTRUCTURE
     1 4XQ         1 TEMP              0 ****  ****    0 ROOT
