@<TRIPOS>MOLECULE
4XR
   24    24     1     0     0
SMALL
bcc


@<TRIPOS>ATOM
      1 O11          0.0000     0.0000     0.0000 oh         1 4XR      -0.559800
      2 C11          1.4300     0.0000     0.0000 c3         1 4XR       0.411900
      3 O51          1.9120     0.0000     1.3460 os         1 4XR      -0.347900
      4 C21          1.9470    -1.2660    -0.6960 c3         1 4XR      -0.119500
      5 N21          1.5120    -2.4550     0.0480 nz         1 4XR       0.087400
      6 C31          3.4780    -1.2040    -0.7230 c3         1 4XR       0.027800
      7 C41          3.9880    -0.8150     0.6370 c2         1 4XR      -0.179200
      8 C51          3.2230    -0.2630     1.5420 c2         1 4XR      -0.007100
      9 C61          3.8340     0.0980     2.8710 c3         1 4XR       0.039000
     10 N61          3.8100     1.5560     3.0410 nz         1 4XR       0.091400
     11 H1          -0.3140     0.8880    -0.0300 ho         1 4XR       0.459000
     12 H2           1.8000     0.8760    -0.5180 h2         1 4XR       0.047700
     13 H3           1.5670    -1.3050    -1.7100 hx         1 4XR       0.126700
     14 H4           1.8360    -2.3950     0.9930 hn         1 4XR       0.236800
     15 H5           0.5120    -2.5060     0.0410 hn         1 4XR       0.236800
     16 H7           3.7950    -0.4670    -1.4510 hc         1 4XR       0.078200
     17 H8           3.8730    -2.1770    -0.9910 hc         1 4XR       0.078200
     18 H9           5.0280    -0.9990     0.8760 ha         1 4XR       0.157000
     19 H10          3.2670    -0.3680     3.6680 hx         1 4XR       0.099700
     20 H11          4.8590    -0.2530     2.9040 hx         1 4XR       0.099700
     21 H12          2.8770     1.8530     3.2450 hn         1 4XR       0.234133
     22 H13          4.4150     1.8140     3.7960 hn         1 4XR       0.234133
     23 H213         1.8860    -3.2760    -0.3850 hn         1 4XR       0.236800
     24 H613         4.1360     1.9960     2.2030 hn         1 4XR       0.234133
@<TRIPOS>BOND
     1     1     2 1   
     2     1    11 1   
     3     2     3 1   
     4     2     4 1   
     5     2    12 1   
     6     3     8 1   
     7     4     5 1   
     8     4     6 1   
     9     4    13 1   
    10     5    14 1   
    11     5    15 1   
    12     5    23 1   
    13     6     7 1   
    14     6    16 1   
    15     6    17 1   
    16     7     8 2   
    17     7    18 1   
    18     8     9 1   
    19     9    10 1   
    20     9    19 1   
    21     9    20 1   
    22    10    21 1   
    23    10    22 1   
    24    10    24 1   
@<TRIPOS>SUBSTRUCTURE
     1 4XR         1 TEMP              0 ****  ****    0 ROOT
