@<TRIPOS>MOLECULE
4XS
   20    21     1     0     0
SMALL
bcc


@<TRIPOS>ATOM
      1 C2          0.0190    0.1710    0.0080 ca        1 4XS      0.528300
      2 C3          0.0250   -0.1040    2.3080 ca        1 4XS      0.708300
      3 N4          1.3760   -0.3130    2.3630 nb        1 4XS     -0.691000
      4 C7         -0.3560   -1.0930    4.6860 cx        1 4XS     -0.107400
      5 C           2.0510   -0.2740    1.1910 ca        1 4XS      0.528300
      6 C1          1.4250   -0.0310   -0.0570 ca        1 4XS     -0.288900
      7 N          -0.6840    0.1390    1.1590 nb        1 4XS     -0.691000
      8 CL5        -0.8400    0.4730   -1.4390 cl        1 4XS     -0.130500
      9 C6         -0.7520   -0.1410    3.5830 cx        1 4XS     -0.186000
     10 C8         -0.1370    0.3770    4.8610 cx        1 4XS     -0.107400
     11 H1          0.5180   -1.7530    4.5470 hc        1 4XS      0.081700
     12 H2         -1.1660   -1.5920    5.2490 hc        1 4XS      0.081700
     13 H3          2.0070    1.0170   -1.8240 hc        1 4XS      0.061033
     14 H4          1.7390   -0.7640   -2.0380 hc        1 4XS      0.061033
     15 H5          3.2400   -0.1650   -1.2170 hc        1 4XS      0.061033
     16 H6         -1.8360    0.0400    3.4230 hc        1 4XS      0.109700
     17 H7         -0.7880    0.9440    5.5510 hc        1 4XS      0.081700
     18 H8          0.8950    0.7720    4.8480 hc        1 4XS      0.081700
     19 C9          2.1440    0.0150   -1.3430 c3        1 4XS     -0.052800
     20 CL          3.7410   -0.5350    1.2610 cl        1 4XS     -0.130500
@<TRIPOS>BOND
     1    1    6 ar  
     2    1    7 ar  
     3    1    8 1   
     4    2    3 ar  
     5    2    7 ar  
     6    2    9 1   
     7    3    5 ar  
     8    4    9 1   
     9    4   10 1   
    10    4   11 1   
    11    4   12 1   
    12    5    6 ar  
    13    5   20 1   
    14    6   19 1   
    15    9   10 1   
    16    9   16 1   
    17   10   17 1   
    18   10   18 1   
    19   13   19 1   
    20   14   19 1   
    21   15   19 1   
@<TRIPOS>SUBSTRUCTURE
     1 4XS         1 TEMP              0 ****  ****    0 ROOT
