@<TRIPOS>MOLECULE
molecule
   20    21     1     0     0
SMALL
bcc


@<TRIPOS>ATOM
      1 C2           0.0000     0.0000     0.0000 ca         1 4XS       0.564300
      2 C3           0.0170     0.0040     2.2980 ca         1 4XS       0.753300
      3 N4           1.3330    -0.0000     2.3380 nb         1 4XS      -0.730000
      4 C7          -0.5380    -1.1650     4.5490 cx         1 4XS      -0.115900
      5 C            2.0460     0.0000     1.2210 ca         1 4XS       0.564300
      6 C1           1.3870     0.0000     0.0000 ca         1 4XS      -0.314900
      7 N           -0.6440     0.0040     1.1580 nb         1 4XS      -0.730000
      8 Cl5         -0.8800     0.0000    -1.4960 cl         1 4XS      -0.133000
      9 C6          -0.7550     0.0090     3.5930 cx         1 4XS      -0.182000
     10 C8           0.0350     0.2120     4.8870 cx         1 4XS      -0.115900
     11 H1           0.1830    -1.9050     4.2250 hc         1 4XS       0.084950
     12 H2          -1.4050    -1.4650     5.1260 hc         1 4XS       0.084950
     13 H3           3.1050     0.5080    -1.1490 hc         1 4XS       0.058033
     14 H4           2.3400    -1.0200    -1.6070 hc         1 4XS       0.058033
     15 H5           1.5860     0.5160    -2.0550 hc         1 4XS       0.058033
     16 H6          -1.7560     0.4230     3.6040 hc         1 4XS       0.107700
     17 H7           1.1070     0.3140     4.7680 hc         1 4XS       0.084950
     18 H8          -0.4810     0.7550     5.6700 hc         1 4XS       0.084950
     19 C9           2.1590     0.0010    -1.2940 c3         1 4XS      -0.047800
     20 Cl           3.7810    -0.0060     1.2840 cl         1 4XS      -0.133000
@<TRIPOS>BOND
     1     4    10 1   
     2     4     9 1   
     3    10     9 1   
     4     9     2 1   
     5     2     7 ar  
     6     2     3 ar  
     7     7     1 ar  
     8     3     5 ar  
     9     1     8 1   
    10     1     6 ar  
    11     5     6 ar  
    12     5    20 1   
    13     6    19 1   
    14     4    11 1   
    15     4    12 1   
    16    19    13 1   
    17    19    14 1   
    18    19    15 1   
    19     9    16 1   
    20    10    17 1   
    21    10    18 1   
@<TRIPOS>SUBSTRUCTURE
     1 4XS         1 TEMP              0 ****  ****    0 ROOT
