@<TRIPOS>MOLECULE
4XU
   55    58     1     0     0
SMALL
bcc


@<TRIPOS>ATOM
      1 C3           0.0000     0.0000     0.0000 ca         1 4XU       0.583200
      2 C7           0.0180     0.0060    -2.4680 c3         1 4XU       0.275100
      3 C9          -2.5710    -0.4020    -5.4300 cc         1 4XU       0.448700
      4 C11         -1.4840     1.0980    -4.1960 cd         1 4XU       0.354600
      5 C12         -1.1200     2.5000    -3.7810 c3         1 4XU      -0.022400
      6 C13         -3.5100    -0.8940    -6.5020 c3         1 4XU      -0.001400
      7 C15          5.5520    -0.0000     2.1150 c3         1 4XU      -0.037400
      8 C18          8.5510     0.9960     3.8040 ca         1 4XU      -0.215300
      9 C20         10.4620     0.0100     2.7860 ca         1 4XU      -0.153300
     10 C21          9.6120    -0.9800     2.2330 ca         1 4XU       0.376600
     11 C            0.0670     0.0000     2.3870 ca         1 4XU       0.515300
     12 N            1.3910     0.0010     2.3100 nb         1 4XU      -0.746000
     13 S           -1.6630    -1.4070    -4.3870 ss         1 4XU      -0.295300
     14 Cl          -0.7230     0.0010     3.9320 cl         1 4XU      -0.077000
     15 C1           2.0050     0.0000     1.1370 ca         1 4XU       0.885300
     16 N2           1.3300     0.0000     0.0000 nb         1 4XU      -0.715000
     17 C4          -0.6770     0.0010     1.2200 ca         1 4XU      -0.444900
     18 N5          -0.7040     0.0060    -1.1940 nu         1 4XU      -0.498900
     19 C6          -2.1830     0.0020     1.2670 c3         1 4XU       0.079200
     20 C8          -0.9720     0.0130    -3.6060 cc         1 4XU      -0.157700
     21 N10         -2.3320     0.8390    -5.1710 nd         1 4XU      -0.565000
     22 C14          4.0410    -0.0000     2.3560 c3         1 4XU       0.213400
     23 C16          6.2830     0.0000     3.4590 c3         1 4XU      -0.064700
     24 C17          7.7710    -0.0000     3.2220 ca         1 4XU       0.381600
     25 C19          9.9010     1.0160     3.5950 ca         1 4XU      -0.052000
     26 N22          8.2970    -0.9380     2.4720 nb         1 4XU      -0.561000
     27 C23         11.8410    -0.0380     2.5300 ca         1 4XU      -0.081000
     28 C24         12.3470    -1.0350     1.7540 ca         1 4XU      -0.099000
     29 C25         11.5140    -2.0090     1.2080 ca         1 4XU      -0.093000
     30 C26         10.1700    -1.9850     1.4230 ca         1 4XU      -0.141300
     31 H1           0.6360    -0.8810    -2.5330 h1         1 4XU       0.037700
     32 H2           0.6430     0.8880    -2.5290 h1         1 4XU       0.037700
     33 H3          -1.4990     2.6910    -2.7840 hc         1 4XU       0.017367
     34 H4          -0.0420     2.6100    -3.7850 hc         1 4XU       0.017367
     35 H5          -1.5580     3.2070    -4.4750 hc         1 4XU       0.017367
     36 H6          -3.5550    -1.9760    -6.4730 hc         1 4XU       0.019700
     37 H7          -4.4990    -0.4860    -6.3300 hc         1 4XU       0.019700
     38 H8          -3.1500    -0.5740    -7.4720 hc         1 4XU       0.019700
     39 H9           5.8280    -0.8850     1.5540 hc         1 4XU       0.032700
     40 H10          5.8280     0.8840     1.5540 hc         1 4XU       0.032700
     41 H12         -1.7040    -0.0360    -1.1850 hn         1 4XU       0.309800
     42 H13         -2.5130    -0.0450     2.2980 hc         1 4XU       0.010700
     43 H14         -2.5620    -0.8580     0.7280 hc         1 4XU       0.010700
     44 H15         -2.5580     0.9090     0.8090 hc         1 4XU       0.010700
     45 H16          3.7650    -0.8850     2.9170 h1         1 4XU       0.010700
     46 H17          3.7650     0.8840     2.9180 h1         1 4XU       0.010700
     47 H18          6.0060    -0.8840     4.0210 hc         1 4XU       0.023700
     48 H19          6.0070     0.8850     4.0200 hc         1 4XU       0.023700
     49 H20         10.5220     1.7840     4.0400 ha         1 4XU       0.110000
     50 H21         12.4990     0.7140     2.9490 ha         1 4XU       0.106000
     51 H22         13.4130    -1.0780     1.5660 ha         1 4XU       0.102000
     52 H23         11.9410    -2.7920     0.5930 ha         1 4XU       0.103000
     53 H24          9.5360    -2.7500     0.9910 ha         1 4XU       0.118000
     54 O            3.3580     0.0000     1.1010 os         1 4XU      -0.406100
     55 H11          8.0920     1.7330     4.4520 ha         1 4XU       0.115000
@<TRIPOS>BOND
     1     1    16 ar  
     2     1    17 ar  
     3     1    18 1   
     4     2    18 1   
     5     2    20 1   
     6     2    31 1   
     7     2    32 1   
     8     3     6 1   
     9     3    13 1   
    10     3    21 2   
    11     4     5 1   
    12     4    20 2   
    13     4    21 1   
    14     5    33 1   
    15     5    34 1   
    16     5    35 1   
    17     6    36 1   
    18     6    37 1   
    19     6    38 1   
    20     7    22 1   
    21     7    23 1   
    22     7    39 1   
    23     7    40 1   
    24     8    24 ar  
    25     8    25 ar  
    26     8    55 1   
    27     9    10 ar  
    28     9    25 ar  
    29     9    27 ar  
    30    10    26 ar  
    31    10    30 ar  
    32    11    12 ar  
    33    11    14 1   
    34    11    17 ar  
    35    12    15 ar  
    36    13    20 1   
    37    15    16 ar  
    38    15    54 1   
    39    17    19 1   
    40    18    41 1   
    41    19    42 1   
    42    19    43 1   
    43    19    44 1   
    44    22    45 1   
    45    22    46 1   
    46    22    54 1   
    47    23    24 1   
    48    23    47 1   
    49    23    48 1   
    50    24    26 ar  
    51    25    49 1   
    52    27    28 ar  
    53    27    50 1   
    54    28    29 ar  
    55    28    51 1   
    56    29    30 ar  
    57    29    52 1   
    58    30    53 1   
@<TRIPOS>SUBSTRUCTURE
     1 4XU         1 TEMP              0 ****  ****    0 ROOT
