@<TRIPOS>MOLECULE
molecule
   22    23     1     0     0
SMALL
bcc


@<TRIPOS>ATOM
      1 C2           0.0000     0.0000     0.0000 ca         1 4XV       0.725200
      2 C3           2.0030     0.0000     1.1320 ca         1 4XV       0.745300
      3 N4           1.3960    -0.0000     2.3020 nb         1 4XV      -0.745000
      4 C7           3.5090    -0.0000     1.0890 cx         1 4XV      -0.179000
      5 C9           4.2350    -1.1740     1.7490 cx         1 4XV      -0.119400
      6 C            0.0720     0.0050     2.3850 ca         1 4XV       0.558300
      7 N            1.3300     0.0000     0.0000 nb         1 4XV      -0.749000
      8 C1          -0.6760     0.0050     1.2210 ca         1 4XV      -0.330900
      9 N5          -0.7050     0.0000    -1.1930 nv         1 4XV      -1.077500
     10 C6          -2.1820     0.0110     1.2710 c3         1 4XV      -0.036800
     11 C8           4.2540     0.2070     2.4090 cx         1 4XV      -0.119400
     12 Cl          -0.7120     0.0040     3.9330 cl         1 4XV      -0.148000
     13 H1           4.0080     0.4090     0.2180 hc         1 4XV       0.104700
     14 H2           3.5980    -1.9100     2.2240 hc         1 4XV       0.083200
     15 H3           5.1600    -1.4780     1.2750 hc         1 4XV       0.083200
     16 H4          -0.9350     0.8670    -1.6380 hn         1 4XV       0.442800
     17 H5          -0.9410    -0.8670    -1.6340 hn         1 4XV       0.442800
     18 H6          -2.5090     0.0160     2.3030 hc         1 4XV       0.050700
     19 H7          -2.5560     0.8960     0.7690 hc         1 4XV       0.050700
     20 H8          -2.5630    -0.8730     0.7750 hc         1 4XV       0.050700
     21 H9           3.6280     0.3140     3.2870 hc         1 4XV       0.083200
     22 H10          5.1910     0.7460     2.3380 hc         1 4XV       0.083200
@<TRIPOS>BOND
     1    11     5 1
     2    11     4 1
     3     5     4 1
     4     4     2 1
     5     2     7 ar
     6     2     3 ar
     7     7     1 ar
     8     3     6 ar
     9     1     9 1
    10     1     8 ar
    11     6     8 ar
    12     6    12 1
    13     8    10 1
    14     4    13 1
    15     5    14 1
    16     5    15 1
    17     9    16 1
    18     9    17 1
    19    10    18 1
    20    10    19 1
    21    10    20 1
    22    11    21 1
    23    11    22 1
@<TRIPOS>SUBSTRUCTURE
     1 4XV         1 TEMP              0 ****  ****    0 ROOT
