@<TRIPOS>MOLECULE
molecule
   57    57     1     0     0
SMALL
bcc


@<TRIPOS>ATOM
      1 C1           0.0000     0.0000     0.0000 c3         1 4XW      -0.026800
      2 C2           1.5010     0.0000     0.0000 c2         1 4XW      -0.158200
      3 C3           2.2260     0.0000     1.0720 c2         1 4XW      -0.170200
      4 C4           1.6680    -0.0090     2.4650 c3         1 4XW      -0.042200
      5 C5           0.1960     0.4060     2.4440 c3         1 4XW      -0.068700
      6 C6          -0.5270    -0.4220     1.3730 c3         1 4XW      -0.054700
      7 C7          -0.2470    -1.9090     1.5980 c3         1 4XW      -0.087400
      8 C8          -1.1100    -2.4220     2.7520 c3         1 4XW      -0.091400
      9 C9          -0.9420    -3.9370     2.8800 c3         1 4XW      -0.075700
     10 C10         -1.7060    -4.4330     4.1100 c3         1 4XW      -0.079400
     11 C11         -1.4370    -5.9260     4.3100 c3         1 4XW      -0.083400
     12 C12         -2.2000    -6.4210     5.5390 c3         1 4XW      -0.082400
     13 C13         -1.9310    -7.9140     5.7390 c3         1 4XW      -0.054700
     14 C14         -2.7920    -8.4380     6.8920 c3         1 4XW      -0.179400
     15 C15         -2.6190    -9.9300     7.0100 c          1 4XW       0.890600
     16 C16         -0.5080    -0.9790    -1.0600 c3         1 4XW      -0.079100
     17 C17         -0.5060     1.4060    -0.3280 c3         1 4XW      -0.079100
     18 C18         -0.4320     0.1400     3.8150 c3         1 4XW      -0.092100
     19 C19         -1.4950    -4.6200     1.6280 c3         1 4XW      -0.091100
     20 C20         -0.4530    -8.1260     6.0690 c3         1 4XW      -0.073100
     21 O21         -3.2820   -10.6090     7.9590 o          1 4XW      -0.856800
     22 O22         -1.8840   -10.5140     6.2500 o          1 4XW      -0.856800
     23 H1           2.0090     0.0000    -0.9570 ha         1 4XW       0.113000
     24 H2           3.3030     0.0070     0.9560 ha         1 4XW       0.112000
     25 H3           1.7530    -1.0070     2.8770 hc         1 4XW       0.051700
     26 H4           2.2270     0.6880     3.0780 hc         1 4XW       0.051700
     27 H5           0.1190     1.4590     2.2010 hc         1 4XW       0.049700
     28 H6          -1.5920    -0.2340     1.4270 hc         1 4XW       0.052700
     29 H7          -0.4840    -2.4610     0.6960 hc         1 4XW       0.050200
     30 H8           0.8000    -2.0470     1.8410 hc         1 4XW       0.050200
     31 H9          -2.1500    -2.1900     2.5560 hc         1 4XW       0.044200
     32 H10         -0.8010    -1.9450     3.6740 hc         1 4XW       0.044200
     33 H11          0.1090    -4.1760     2.9880 hc         1 4XW       0.048700
     34 H12         -1.3760    -3.8860     4.9850 hc         1 4XW       0.035700
     35 H13         -2.7680    -4.2740     3.9640 hc         1 4XW       0.035700
     36 H14         -0.3760    -6.0850     4.4560 hc         1 4XW       0.041700
     37 H15         -1.7680    -6.4730     3.4350 hc         1 4XW       0.041700
     38 H16         -1.8700    -5.8740     6.4140 hc         1 4XW       0.029200
     39 H17         -3.2620    -6.2620     5.3930 hc         1 4XW       0.029200
     40 H18         -2.1790    -8.4500     4.8310 hc         1 4XW       0.058700
     41 H19         -2.4840    -7.9640     7.8160 hc         1 4XW       0.028200
     42 H20         -3.8330    -8.2090     6.6980 hc         1 4XW       0.028200
     43 H21          0.0950    -1.8790    -1.0380 hc         1 4XW       0.034533
     44 H22         -0.4370    -0.5200    -2.0380 hc         1 4XW       0.034533
     45 H23         -1.5410    -1.2310    -0.8530 hc         1 4XW       0.034533
     46 H24          0.0620     2.1350     0.2360 hc         1 4XW       0.034533
     47 H25         -0.3860     1.5950    -1.3870 hc         1 4XW       0.034533
     48 H26         -1.5540     1.4830    -0.0640 hc         1 4XW       0.034533
     49 H27         -0.3110     1.0140     4.4440 hc         1 4XW       0.037033
     50 H28         -1.4870    -0.0730     3.6940 hc         1 4XW       0.037033
     51 H29          0.0570    -0.7080     4.2780 hc         1 4XW       0.037033
     52 H30         -0.6760    -5.0380     1.0540 hc         1 4XW       0.033033
     53 H31         -2.0250    -3.8930     1.0240 hc         1 4XW       0.033033
     54 H32         -2.1740    -5.4120     1.9180 hc         1 4XW       0.033033
     55 H33         -0.0340    -7.2050     6.4570 hc         1 4XW       0.026033
     56 H34          0.0800    -8.4150     5.1710 hc         1 4XW       0.026033
     57 H35         -0.3570    -8.9070     6.8130 hc         1 4XW       0.026033
@<TRIPOS>BOND
     1    19     9 1
     2    10     9 1
     3    10    11 1
     4    14    15 1
     5    14    13 1
     6     9     8 1
     7    12    11 1
     8    12    13 1
     9    15    22 1
    10    15    21 1
    11    13    20 1
    12     8     7 1
    13     7     6 1
    14    17     1 1
    15    16     1 1
    16     6     1 1
    17     6     5 1
    18     1     2 1
    19    18     5 1
    20     5     4 1
    21     2     3 2
    22     4     3 1
    23     2    23 1
    24     3    24 1
    25     4    25 1
    26     4    26 1
    27     5    27 1
    28     6    28 1
    29     7    29 1
    30     7    30 1
    31     8    31 1
    32     8    32 1
    33     9    33 1
    34    10    34 1
    35    10    35 1
    36    11    36 1
    37    11    37 1
    38    12    38 1
    39    12    39 1
    40    13    40 1
    41    14    41 1
    42    14    42 1
    43    16    43 1
    44    16    44 1
    45    16    45 1
    46    17    46 1
    47    17    47 1
    48    17    48 1
    49    18    49 1
    50    18    50 1
    51    18    51 1
    52    19    52 1
    53    19    53 1
    54    19    54 1
    55    20    55 1
    56    20    56 1
    57    20    57 1
@<TRIPOS>SUBSTRUCTURE
     1 4XW         1 TEMP              0 ****  ****    0 ROOT
