@<TRIPOS>MOLECULE
molecule
   14    14     1     0     0
SMALL
bcc


@<TRIPOS>ATOM
      1 CAA          0.0000     0.0000     0.0000 c3         1 4XX      -0.030900
      2 CAG          1.5070     0.0000     0.0000 c2         1 4XX       0.125900
      3 OAE          2.2520     0.0000     1.1170 os         1 4XX      -0.284900
      4 CAD          3.6370     0.0000     0.7440 c3         1 4XX       0.006400
      5 CAF          3.6220     0.0010    -0.7710 c          1 4XX       0.531300
      6 OAB          4.5770     0.0010    -1.5220 o          1 4XX      -0.511100
      7 CAH          2.2530    -0.0040    -1.1200 ce         1 4XX      -0.173100
      8 OAC          1.7640    -0.0060    -2.3910 oh         1 4XX      -0.474100
      9 H1          -0.3610     0.0590     1.0200 hc         1 4XX       0.066033
     10 H2          -0.3610     0.8540    -0.5610 hc         1 4XX       0.066033
     11 H3          -0.3610    -0.9120    -0.4590 hc         1 4XX       0.066033
     12 H4           4.1270    -0.8910     1.1160 h1         1 4XX       0.096200
     13 H5           4.1270     0.8920     1.1170 h1         1 4XX       0.096200
     14 H6           2.1150    -0.7440    -2.8610 ho         1 4XX       0.419000
@<TRIPOS>BOND
     1     6     5 2   
     2     5     4 1   
     3     5     7 1   
     4     4     3 1   
     5     8     7 1   
     6     7     2 2   
     7     3     2 1   
     8     2     1 1   
     9     1     9 1   
    10     1    10 1   
    11     1    11 1   
    12     4    12 1   
    13     4    13 1   
    14     8    14 1   
@<TRIPOS>SUBSTRUCTURE
     1 4XX         1 TEMP              0 ****  ****    0 ROOT
