@<TRIPOS>MOLECULE
4XX
   14    14     1     0     0
SMALL
bcc


@<TRIPOS>ATOM
      1 CAA        -0.0210    0.0550    0.0940 c3        1 4XX     -0.044900
      2 CAG         1.4320   -0.0020   -0.0900 c2        1 4XX      0.098900
      3 OAE         2.2030    0.1940    1.0600 os        1 4XX     -0.319900
      4 CAD         3.6040    0.1050    0.6930 c3        1 4XX      0.010400
      5 CAF         3.6360   -0.1680   -0.8030 c         1 4XX      0.536300
      6 OAB         4.6220   -0.3140   -1.5190 o         1 4XX     -0.516100
      7 CAH         2.2110   -0.2150   -1.1930 ce        1 4XX     -0.134100
      8 OAC         1.7360   -0.4370   -2.4550 oh        1 4XX     -0.468100
      9 H1         -0.3200    1.0580    0.4900 hc        1 4XX      0.069033
     10 H2         -0.5280   -0.1230   -0.8870 hc        1 4XX      0.069033
     11 H3         -0.3470   -0.7240    0.8280 hc        1 4XX      0.069033
     12 H4          4.0760    1.0830    0.9550 h1        1 4XX      0.097700
     13 H5          4.0460   -0.7340    1.2850 h1        1 4XX      0.097700
     14 H6          2.5190   -0.5530   -3.0200 ho        1 4XX      0.434000
@<TRIPOS>BOND
     1    1    2 1   
     2    1    9 1   
     3    1   10 1   
     4    1   11 1   
     5    2    3 1   
     6    2    7 2   
     7    3    4 1   
     8    4    5 1   
     9    4   12 1   
    10    4   13 1   
    11    5    6 2   
    12    5    7 1   
    13    7    8 1   
    14    8   14 1   
@<TRIPOS>SUBSTRUCTURE
     1 4XX         1 TEMP              0 ****  ****    0 ROOT
