@<TRIPOS>MOLECULE
molecule
   31    32     1     0     0
SMALL
bcc


@<TRIPOS>ATOM
      1 C3           0.0000     0.0000     0.0000 ca         1 4XY       0.742200
      2 C5           3.5110    -0.0000     1.0890 cx         1 4XY      -0.179000
      3 C7           4.2360    -1.1750     1.7490 cx         1 4XY      -0.118400
      4 C9          -0.2350    -0.0100    -4.9550 c3         1 4XY      -0.087100
      5 C10         -0.9880    -0.0040    -3.6220 c3         1 4XY      -0.105400
      6 C11          0.0170    -0.0060    -2.4690 c3         1 4XY       0.238800
      7 C            0.0730     0.0060     2.3850 ca         1 4XY       0.592300
      8 N            1.3970    -0.0000     2.3020 nb         1 4XY      -0.785000
      9 C1           2.0040     0.0000     1.1320 ca         1 4XY       0.777300
     10 N2           1.3310     0.0000     0.0000 nb         1 4XY      -0.801000
     11 C4          -0.6750     0.0050     1.2210 ca         1 4XY      -0.397900
     12 C6           4.2550     0.2060     2.4100 cx         1 4XY      -0.118400
     13 C8          -2.1810     0.0130     1.2720 c3         1 4XY      -0.039800
     14 Cl          -0.7110     0.0120     3.9340 cl         1 4XY      -0.153000
     15 N12         -0.7030     0.0010    -1.1930 nu         1 4XY      -0.905900
     16 H1           4.0100     0.4090     0.2190 hc         1 4XY       0.101700
     17 H2           3.5980    -1.9110     2.2230 hc         1 4XY       0.083200
     18 H3           5.1610    -1.4790     1.2750 hc         1 4XY       0.083200
     19 H4           0.3830    -0.8980    -5.0160 hc         1 4XY       0.038700
     20 H5          -0.9470    -0.0090    -5.7710 hc         1 4XY       0.038700
     21 H6           0.3910     0.8710    -5.0200 hc         1 4XY       0.038700
     22 H7          -1.6140    -0.8850    -3.5570 hc         1 4XY       0.044700
     23 H8          -1.6060     0.8840    -3.5610 hc         1 4XY       0.044700
     24 H9           0.6440     0.8760    -2.5340 h1         1 4XY       0.054700
     25 H10          0.6360    -0.8930    -2.5300 h1         1 4XY       0.054700
     26 H11          5.1920     0.7450     2.3390 hc         1 4XY       0.083200
     27 H12          3.6290     0.3130     3.2870 hc         1 4XY       0.083200
     28 H13         -2.5630    -0.8710     0.7750 hc         1 4XY       0.046700
     29 H14         -2.5550     0.8980     0.7720 hc         1 4XY       0.046700
     30 H15         -2.5080     0.0160     2.3050 hc         1 4XY       0.046700
     31 H16         -1.7040     0.0060    -1.1840 hn         1 4XY       0.450800
@<TRIPOS>BOND
     1    12     3 1
     2    12     2 1
     3     3     2 1
     4     2     9 1
     5     9    10 ar
     6     9     8 ar
     7    10     1 ar
     8     4     5 1
     9     8     7 ar
    10     6     5 1
    11     6    15 1
    12     1    15 1
    13     1    11 ar
    14     7    11 ar
    15     7    14 1
    16    11    13 1
    17     2    16 1
    18     3    17 1
    19     3    18 1
    20     4    19 1
    21     4    20 1
    22     4    21 1
    23     5    22 1
    24     5    23 1
    25     6    24 1
    26     6    25 1
    27    12    26 1
    28    12    27 1
    29    13    28 1
    30    13    29 1
    31    13    30 1
    32    15    31 1
@<TRIPOS>SUBSTRUCTURE
     1 4XY         1 TEMP              0 ****  ****    0 ROOT
