@<TRIPOS>MOLECULE
4Y0
   41    43     1     0     0
SMALL
bcc


@<TRIPOS>ATOM
      1 N1           0.0000     0.0000     0.0000 na         1 4Y0       0.459400
      2 C2           1.7730     0.0000     1.3020 cc         1 4Y0      -0.318300
      3 C3           0.6300    -0.0010     2.1110 cc         1 4Y0       0.343200
      4 C4           1.3620     0.0000     0.0000 cd         1 4Y0      -0.186300
      5 N5          -0.4280    -0.0010     1.3330 nd         1 4Y0      -0.706800
      6 N6           0.6170    -0.0030     3.5120 ns         1 4Y0      -0.070400
      7 C7           1.7790    -0.0030     4.1960 c          1 4Y0       0.592700
      8 C9           1.7650    -0.0040     5.6710 ca         1 4Y0      -0.164600
      9 C10          2.9690    -0.0050     6.3820 ca         1 4Y0      -0.110000
     10 C11          2.9520    -0.0050     7.7630 ca         1 4Y0       0.106100
     11 C12          1.7350    -0.0050     8.4450 ca         1 4Y0       0.144100
     12 C13          2.2370     0.0010    -1.1940 ca         1 4Y0      -0.007000
     13 C15          0.5510     0.0010     6.3610 ca         1 4Y0      -0.078000
     14 C16          0.5400    -0.0050     7.7390 ca         1 4Y0      -0.189000
     15 O17          4.1200    -0.0060     8.4590 os         1 4Y0      -0.293900
     16 O18          1.7190    -0.0070     9.8030 os         1 4Y0      -0.289900
     17 C19          1.6790     0.0010    -2.4720 ca         1 4Y0      -0.094000
     18 C20          3.6250     0.0060    -1.0460 ca         1 4Y0      -0.094000
     19 C21          5.3280    -0.0070     7.6950 c3         1 4Y0       0.238700
     20 C22          4.4350     0.0070    -2.1630 ca         1 4Y0      -0.095000
     21 C23          2.5000     0.0020    -3.5810 ca         1 4Y0      -0.095000
     22 O2           2.8370    -0.0030     3.5970 o          1 4Y0      -0.645100
     23 C            0.4390    -0.0060    10.4380 c3         1 4Y0       0.241700
     24 C24          3.8740     0.0030    -3.4280 ca         1 4Y0      -0.099000
     25 H1          -0.5900    -0.0000    -0.8090 hn         1 4Y0       0.148700
     26 H2           2.8000     0.0000     1.6480 ha         1 4Y0       0.189000
     27 H6          -0.2540    -0.0390     4.0040 hn         1 4Y0       0.174500
     28 H10          3.9130    -0.0040     5.8510 ha         1 4Y0       0.145000
     29 H15         -0.3840     0.0020     5.8130 ha         1 4Y0       0.104000
     30 H16         -0.4030    -0.0030     8.2730 ha         1 4Y0       0.125000
     31 H19          0.6030     0.0000    -2.5930 ha         1 4Y0       0.108500
     32 H20          4.0650     0.0090    -0.0560 ha         1 4Y0       0.108500
     33 H211         6.1790    -0.0080     8.3660 h1         1 4Y0      -0.000300
     34 H212         5.3600    -0.8910     7.0700 h1         1 4Y0      -0.000300
     35 H213         5.3610     0.8780     7.0710 h1         1 4Y0      -0.000300
     36 HC1          0.5690    -0.0070    11.5130 h1         1 4Y0      -0.001633
     37 HC2         -0.1120    -0.8900    10.1400 h1         1 4Y0      -0.001633
     38 HC3         -0.1110     0.8790    10.1410 h1         1 4Y0      -0.001633
     39 H23          2.0670     0.0000    -4.5740 ha         1 4Y0       0.104000
     40 H22          5.5120     0.0090    -2.0490 ha         1 4Y0       0.104000
     41 H24          4.5150     0.0030    -4.3010 ha         1 4Y0       0.103000
@<TRIPOS>BOND
     1     1     4 1   
     2     1     5 1   
     3     1    25 1   
     4     2     3 1   
     5     2     4 2   
     6     2    26 1   
     7     3     5 2   
     8     3     6 1   
     9     4    12 1   
    10     6     7 1   
    11     6    27 1   
    12     7     8 1   
    13     7    22 2   
    14     8     9 ar  
    15     8    13 ar  
    16     9    10 ar  
    17     9    28 1   
    18    10    11 ar  
    19    10    15 1   
    20    11    14 ar  
    21    11    16 1   
    22    12    17 ar  
    23    12    18 ar  
    24    13    14 ar  
    25    13    29 1   
    26    14    30 1   
    27    15    19 1   
    28    16    23 1   
    29    17    21 ar  
    30    17    31 1   
    31    18    20 ar  
    32    18    32 1   
    33    19    33 1   
    34    19    34 1   
    35    19    35 1   
    36    20    24 ar  
    37    20    40 1   
    38    21    24 ar  
    39    21    39 1   
    40    23    36 1   
    41    23    37 1   
    42    23    38 1   
    43    24    41 1   
@<TRIPOS>SUBSTRUCTURE
     1 4Y0         1 TEMP              0 ****  ****    0 ROOT
