@<TRIPOS>MOLECULE
molecule
   41    43     1     0     0
SMALL
bcc


@<TRIPOS>ATOM
      1 N1           0.0000     0.0000     0.0000 na         1 4Y0      -0.039600
      2 C2           1.7730     0.0000     1.3020 cc         1 4Y0      -0.323300
      3 C3           0.6300    -0.0010     2.1110 cc         1 4Y0       0.466200
      4 C4           1.3620     0.0000     0.0000 cd         1 4Y0      -0.020300
      5 N5          -0.4280    -0.0010     1.3330 nd         1 4Y0      -0.555800
      6 N6           0.6170    -0.0030     3.5120 ns         1 4Y0      -0.527400
      7 C7           1.7790    -0.0030     4.1960 c          1 4Y0       0.690700
      8 C9           1.7650    -0.0040     5.6710 ca         1 4Y0      -0.152600
      9 C10          2.9690    -0.0050     6.3820 ca         1 4Y0      -0.128000
     10 C11          2.9520    -0.0050     7.7630 ca         1 4Y0       0.106100
     11 C12          1.7350    -0.0050     8.4450 ca         1 4Y0       0.143100
     12 C13          2.2370     0.0010    -1.1940 ca         1 4Y0      -0.022000
     13 C15          0.5510     0.0010     6.3610 ca         1 4Y0      -0.099000
     14 C16          0.5400    -0.0050     7.7390 ca         1 4Y0      -0.202000
     15 O17          4.1200    -0.0060     8.4590 os         1 4Y0      -0.312900
     16 O18          1.7190    -0.0070     9.8030 os         1 4Y0      -0.307900
     17 C19          1.6790     0.0010    -2.4720 ca         1 4Y0      -0.112500
     18 C20          3.6250     0.0060    -1.0460 ca         1 4Y0      -0.112500
     19 C21          5.3280    -0.0070     7.6950 c3         1 4Y0       0.124700
     20 C22          4.4350     0.0070    -2.1630 ca         1 4Y0      -0.125500
     21 C23          2.5000     0.0020    -3.5810 ca         1 4Y0      -0.125500
     22 O2           2.8370    -0.0030     3.5970 o          1 4Y0      -0.599100
     23 C            0.4390    -0.0060    10.4380 c3         1 4Y0       0.125700
     24 C24          3.8740     0.0030    -3.4280 ca         1 4Y0      -0.123000
     25 H1          -0.5900    -0.0000    -0.8090 hn         1 4Y0       0.332700
     26 H2           2.8000     0.0000     1.6480 ha         1 4Y0       0.198000
     27 H6          -0.2540    -0.0390     4.0040 hn         1 4Y0       0.334500
     28 H10          3.9130    -0.0040     5.8510 ha         1 4Y0       0.167000
     29 H15         -0.3840     0.0020     5.8130 ha         1 4Y0       0.128000
     30 H16         -0.4030    -0.0030     8.2730 ha         1 4Y0       0.145000
     31 H19          0.6030     0.0000    -2.5930 ha         1 4Y0       0.134000
     32 H20          4.0650     0.0090    -0.0560 ha         1 4Y0       0.134000
     33 H211         6.1790    -0.0080     8.3660 h1         1 4Y0       0.044033
     34 H212         5.3600    -0.8910     7.0700 h1         1 4Y0       0.044033
     35 H213         5.3610     0.8780     7.0710 h1         1 4Y0       0.044033
     36 HC1          0.5690    -0.0070    11.5130 h1         1 4Y0       0.043033
     37 HC2         -0.1120    -0.8900    10.1400 h1         1 4Y0       0.043033
     38 HC3         -0.1110     0.8790    10.1410 h1         1 4Y0       0.043033
     39 H23          2.0670     0.0000    -4.5740 ha         1 4Y0       0.133000
     40 H22          5.5120     0.0090    -2.0490 ha         1 4Y0       0.133000
     41 H24          4.5150     0.0030    -4.3010 ha         1 4Y0       0.131000
@<TRIPOS>BOND
     1     1     4 1
     2     1     5 1
     3     2     3 1
     4     2     4 2
     5     3     5 2
     6     3     6 1
     7     4    12 1
     8     6     7 1
     9     7     8 1
    10     7    22 2
    11     8     9 ar
    12     8    13 ar
    13     9    10 ar
    14    10    11 ar
    15    10    15 1
    16    11    14 ar
    17    11    16 1
    18    12    17 ar
    19    12    18 ar
    20    13    14 ar
    21    15    19 1
    22    16    23 1
    23    17    21 ar
    24    18    20 ar
    25    20    24 ar
    26    21    24 ar
    27     1    25 1
    28     2    26 1
    29     6    27 1
    30     9    28 1
    31    13    29 1
    32    14    30 1
    33    17    31 1
    34    18    32 1
    35    19    33 1
    36    19    34 1
    37    19    35 1
    38    23    36 1
    39    23    37 1
    40    23    38 1
    41    21    39 1
    42    20    40 1
    43    24    41 1
@<TRIPOS>SUBSTRUCTURE
     1 4Y0         1 TEMP              0 ****  ****    0 ROOT
