@<TRIPOS>MOLECULE
4Y1
   46    48     1     0     0
SMALL
bcc


@<TRIPOS>ATOM
      1 C3           0.0000     0.0000     0.0000 ca         1 4Y1       0.583200
      2 C5          -2.1840     0.0050     1.2650 c3         1 4Y1       0.079200
      3 N6          -0.7030    -0.0000    -1.1940 nu         1 4Y1      -0.499900
      4 C7           0.0190    -0.0010    -2.4690 c3         1 4Y1       0.274100
      5 C9          -2.5590    -0.4270    -5.4360 cc         1 4Y1       0.448700
      6 C11         -1.4860     1.0790    -4.2000 cd         1 4Y1       0.354600
      7 C12         -3.4880    -0.9270    -6.5140 c3         1 4Y1      -0.001400
      8 C13         -1.1300     2.4840    -3.7880 c3         1 4Y1      -0.022400
      9 C15          5.5500     0.0100     2.1180 c3         1 4Y1      -0.076700
     10 N17          6.0040     0.9700     4.3190 nb         1 4Y1      -0.574000
     11 C18          6.6070     1.0220     5.4910 ca         1 4Y1       0.407200
     12 C20          7.8580    -0.9380     4.9440 ca         1 4Y1      -0.066000
     13 C21          7.2020    -0.9580     3.7220 ca         1 4Y1      -0.213300
     14 C            0.0660     0.0110     2.3860 ca         1 4Y1       0.515300
     15 N            1.3900     0.0110     2.3100 nb         1 4Y1      -0.741000
     16 O            3.3580     0.0010     1.1020 os         1 4Y1      -0.412100
     17 S           -1.6490    -1.4260    -4.3890 ss         1 4Y1      -0.297300
     18 Cl          -0.7250     0.0260     3.9320 cl         1 4Y1      -0.077000
     19 C1           2.0040     0.0000     1.1380 ca         1 4Y1       0.886300
     20 N2           1.3300     0.0000     0.0000 nb         1 4Y1      -0.716000
     21 C4          -0.6780     0.0060     1.2200 ca         1 4Y1      -0.444900
     22 C8          -0.9700    -0.0010    -3.6060 cc         1 4Y1      -0.156700
     23 N10         -2.3320     0.8150    -5.1750 nd         1 4Y1      -0.564000
     24 C14          4.0390     0.0120     2.3580 c3         1 4Y1       0.214400
     25 C16          6.2700     0.0240     3.4420 ca         1 4Y1       0.376600
     26 C19          7.5510     0.0750     5.8410 ca         1 4Y1      -0.225300
     27 H1          -2.5140    -0.0370     2.2960 hc         1 4Y1       0.011033
     28 H2          -2.5610    -0.8580     0.7300 hc         1 4Y1       0.011033
     29 H3          -2.5600     0.9100     0.8030 hc         1 4Y1       0.011033
     30 H4          -1.7030    -0.0470    -1.1860 hn         1 4Y1       0.308800
     31 H5           0.6420    -0.8850    -2.5310 h1         1 4Y1       0.037200
     32 H6           0.6410     0.8840    -2.5320 h1         1 4Y1       0.037200
     33 H7          -4.4730    -0.5000    -6.3680 hc         1 4Y1       0.019700
     34 H8          -3.1060    -0.6330    -7.4840 hc         1 4Y1       0.019700
     35 H9          -3.5510    -2.0070    -6.4630 hc         1 4Y1       0.019700
     36 H10         -0.0520     2.5990    -3.7910 hc         1 4Y1       0.017700
     37 H11         -1.5700     3.1880    -4.4840 hc         1 4Y1       0.017700
     38 H12         -1.5100     2.6760    -2.7910 hc         1 4Y1       0.017700
     39 H13          5.8270     0.8890     1.5480 hc         1 4Y1       0.029700
     40 H14          5.8270    -0.8790     1.5650 hc         1 4Y1       0.029700
     41 H16          8.5930    -1.6940     5.1910 ha         1 4Y1       0.108000
     42 H17          7.4170    -1.7340     2.9980 ha         1 4Y1       0.117000
     43 H18          3.7630    -0.8670     2.9270 h1         1 4Y1       0.021200
     44 H19          3.7630     0.9020     2.9110 h1         1 4Y1       0.021200
     45 H20          8.0440     0.1220     6.8050 ha         1 4Y1       0.113000
     46 H15          6.3610     1.8160     6.1850 h4         1 4Y1      -0.019900
@<TRIPOS>BOND
     1     1     3 1   
     2     1    20 ar  
     3     1    21 ar  
     4     2    21 1   
     5     2    27 1   
     6     2    28 1   
     7     2    29 1   
     8     3     4 1   
     9     3    30 1   
    10     4    22 1   
    11     4    31 1   
    12     4    32 1   
    13     5     7 1   
    14     5    17 1   
    15     5    23 2   
    16     6     8 1   
    17     6    22 2   
    18     6    23 1   
    19     7    33 1   
    20     7    34 1   
    21     7    35 1   
    22     8    36 1   
    23     8    37 1   
    24     8    38 1   
    25     9    24 1   
    26     9    25 1   
    27     9    39 1   
    28     9    40 1   
    29    10    11 ar  
    30    10    25 ar  
    31    11    26 ar  
    32    11    46 1   
    33    12    13 ar  
    34    12    26 ar  
    35    12    41 1   
    36    13    25 ar  
    37    13    42 1   
    38    14    15 ar  
    39    14    18 1   
    40    14    21 ar  
    41    15    19 ar  
    42    16    19 1   
    43    16    24 1   
    44    17    22 1   
    45    19    20 ar  
    46    24    43 1   
    47    24    44 1   
    48    26    45 1   
@<TRIPOS>SUBSTRUCTURE
     1 4Y1         1 TEMP              0 ****  ****    0 ROOT
