@<TRIPOS>MOLECULE
4Y2
   37    39     1     0     0
SMALL
bcc


@<TRIPOS>ATOM
      1 C3           0.0000     0.0000     0.0000 ca         1 4Y2       0.555200
      2 C5          -2.1810     0.0120     1.2710 c3         1 4Y2       0.073200
      3 C7           4.2360     1.1760     1.7470 cx         1 4Y2      -0.066400
      4 C9          -2.5690    -0.4280    -5.4300 cc         1 4Y2       0.449700
      5 C11         -1.4850     1.0760    -4.2010 cd         1 4Y2       0.354600
      6 C12         -0.9730    -0.0050    -3.6050 cc         1 4Y2      -0.157700
      7 C15          0.0170    -0.0060    -2.4680 c3         1 4Y2       0.276100
      8 C            0.0740     0.0060     2.3850 ca         1 4Y2       0.479300
      9 N            1.3970     0.0000     2.3020 nb         1 4Y2      -0.662000
     10 S           -1.6570    -1.4290    -4.3850 ss         1 4Y2      -0.296300
     11 C1           2.0040     0.0000     1.1320 ca         1 4Y2       0.690300
     12 N2           1.3310     0.0000     0.0000 nb         1 4Y2      -0.691000
     13 C4          -0.6750     0.0060     1.2220 ca         1 4Y2      -0.408900
     14 C6           3.5100     0.0000     1.0890 cx         1 4Y2      -0.166000
     15 C8           4.2560    -0.2040     2.4090 cx         1 4Y2      -0.066400
     16 Cl          -0.7110     0.0120     3.9340 cl         1 4Y2      -0.077000
     17 N10         -2.3340     0.8140    -5.1730 nd         1 4Y2      -0.564000
     18 C14         -1.1230     2.4810    -3.7910 c3         1 4Y2      -0.022400
     19 N16         -0.7030     0.0010    -1.1930 nu         1 4Y2      -0.501900
     20 H1          -2.5540     0.9200     0.8130 hc         1 4Y2       0.012700
     21 H2          -2.5090    -0.0330     2.3030 hc         1 4Y2       0.012700
     22 H3          -2.5630    -0.8470     0.7330 hc         1 4Y2       0.012700
     23 H4           3.5980     1.9130     2.2210 hc         1 4Y2       0.050950
     24 H5           5.1610     1.4800     1.2720 hc         1 4Y2       0.050950
     25 H6          -3.5200    -2.0090    -6.4930 hc         1 4Y2       0.020033
     26 H7          -3.1690    -0.5750    -7.4670 hc         1 4Y2       0.020033
     27 H8          -4.5050    -0.5510    -6.3080 hc         1 4Y2       0.020033
     28 H9           0.6360    -0.8930    -2.5290 h1         1 4Y2       0.035700
     29 H10          0.6430     0.8760    -2.5340 h1         1 4Y2       0.035700
     30 H11          4.0090    -0.4100     0.2190 hc         1 4Y2       0.069700
     31 H12          5.1930    -0.7430     2.3390 hc         1 4Y2       0.050950
     32 H13          3.6300    -0.3100     3.2880 hc         1 4Y2       0.050950
     33 H14         -0.0450     2.5910    -3.7950 hc         1 4Y2       0.017367
     34 H15         -1.5020     2.6760    -2.7950 hc         1 4Y2       0.017367
     35 H16         -1.5600     3.1850    -4.4890 hc         1 4Y2       0.017367
     36 H17         -1.7040    -0.0280    -1.1840 hn         1 4Y2       0.308800
     37 C13         -3.5060    -0.9260    -6.5000 c3         1 4Y2      -0.001400
@<TRIPOS>BOND
     1     1    12 ar  
     2     1    13 ar  
     3     1    19 1   
     4     2    13 1   
     5     2    20 1   
     6     2    21 1   
     7     2    22 1   
     8     3    14 1   
     9     3    15 1   
    10     3    23 1   
    11     3    24 1   
    12     4    10 1   
    13     4    17 2   
    14     4    37 1   
    15     5     6 2   
    16     5    17 1   
    17     5    18 1   
    18     6     7 1   
    19     6    10 1   
    20     7    19 1   
    21     7    28 1   
    22     7    29 1   
    23     8     9 ar  
    24     8    13 ar  
    25     8    16 1   
    26     9    11 ar  
    27    11    12 ar  
    28    11    14 1   
    29    14    15 1   
    30    14    30 1   
    31    15    31 1   
    32    15    32 1   
    33    18    33 1   
    34    18    34 1   
    35    18    35 1   
    36    19    36 1   
    37    25    37 1   
    38    26    37 1   
    39    27    37 1   
@<TRIPOS>SUBSTRUCTURE
     1 4Y2         1 TEMP              0 ****  ****    0 ROOT
