@<TRIPOS>MOLECULE
molecule
   40    41     1     0     0
SMALL
bcc


@<TRIPOS>ATOM
      1 N1           0.0000     0.0000     0.0000 n          1 4Y3      -0.379000
      2 C2           1.3450     0.0000     0.0000 c          1 4Y3       0.853900
      3 C4           1.4090     0.0000     2.3100 cc         1 4Y3       0.181500
      4 C5          -0.0020    -0.0110     2.3460 cd         1 4Y3      -0.044100
      5 PA           0.8680    -3.9270    -5.2910 p5         1 4Y3       1.445800
      6 PB           0.5790    -6.8770    -5.2400 p5         1 4Y3       1.558800
      7 PG          -0.3730    -9.3490    -3.9100 p5         1 4Y3       1.305900
      8 C5'          0.6010    -1.4360    -4.3600 c3         1 4Y3       0.239400
      9 O5'          0.1270    -2.7830    -4.4350 os         1 4Y3      -0.604200
     10 C4'         -0.3330    -0.6170    -3.4670 c3         1 4Y3       0.138100
     11 O4'         -0.2640    -1.0780    -2.1010 os         1 4Y3      -0.353600
     12 C            0.1510     0.8540    -3.3770 c3         1 4Y3      -0.110400
     13 C2'         -0.4580     1.3130    -2.0300 c3         1 4Y3      -0.122400
     14 C1'         -0.7290     0.0000    -1.2700 c3         1 4Y3       0.318500
     15 O1A          0.8000    -3.5550    -6.8560 o          1 4Y3      -0.844500
     16 O1B          0.5610    -7.2440    -6.8080 o          1 4Y3      -0.722500
     17 O1G          0.4370    -9.3810    -2.5190 o          1 4Y3      -0.650167
     18 O2           1.9450    -0.0010    -1.0630 o          1 4Y3      -0.678500
     19 O2A          2.2840    -4.0210    -4.8670 o          1 4Y3      -0.844500
     20 O2B          1.9450    -7.0700    -4.7040 o          1 4Y3      -0.722500
     21 O2G         -1.8640    -9.9080    -3.6760 o          1 4Y3      -0.650167
     22 N3           2.0340     0.0000     1.1400 nd         1 4Y3      -0.827100
     23 O3A          0.1380    -5.3410    -5.0440 os         1 4Y3      -0.725800
     24 O3B         -0.4470    -7.8350    -4.4530 os         1 4Y3      -0.718800
     25 O3G          0.3210   -10.1950    -4.9050 o          1 4Y3      -0.650167
     26 N4           2.1310     0.0020     3.4810 nz         1 4Y3      -0.633600
     27 C6          -0.6890    -0.0050     1.1780 cc         1 4Y3      -0.097400
     28 F           -0.6580    -0.0100     3.5280 f          1 4Y3      -0.232500
     29 H1           1.6000    -1.4280    -3.9410 h1         1 4Y3       0.038700
     30 H2           0.6220    -1.0050    -5.3530 h1         1 4Y3       0.038700
     31 H3          -1.3520    -0.6590    -3.8300 h1         1 4Y3       0.029700
     32 H4          -0.2470     1.4390    -4.1980 hc         1 4Y3       0.050700
     33 H5           1.2320     0.9010    -3.3470 hc         1 4Y3       0.050700
     34 H6           0.2500     1.9250    -1.4860 hc         1 4Y3       0.034200
     35 H7          -1.3840     1.8500    -2.1980 hc         1 4Y3       0.034200
     36 H8          -1.7920    -0.1070    -1.0910 h2         1 4Y3       0.027700
     37 H13          3.1090     0.0100     3.2700 hn         1 4Y3       0.379133
     38 H14          1.9100    -0.8190     4.0100 hn         1 4Y3       0.379133
     39 H15         -1.7720    -0.0090     1.1790 h4         1 4Y3       0.129000
     40 H43          1.8980     0.8160     4.0150 hn         1 4Y3       0.379133
@<TRIPOS>BOND
     1    21     7 1
     2    25     7 1
     3     7    24 1
     4     7    17 1
     5    24     6 1
     6    16     6 1
     7     6    20 1
     8     6    23 1
     9    23     5 1
    10     5    19 1
    11     5     9 1
    12     5    15 1
    13     9     8 1
    14    12    13 1
    15    12    10 1
    16     8    10 1
    17    13    14 1
    18    10    11 1
    19    14    11 1
    20    14     1 1
    21    27     1 1
    22    27     4 2
    23    28     4 1
    24     1     2 1
    25     4     3 1
    26     2    18 2
    27     2    22 1
    28     3    22 2
    29     3    26 1
    30     8    29 1
    31     8    30 1
    32    10    31 1
    33    12    32 1
    34    12    33 1
    35    13    34 1
    36    13    35 1
    37    14    36 1
    38    26    37 1
    39    26    38 1
    40    27    39 1
    41    40    26 1
@<TRIPOS>SUBSTRUCTURE
     1 4Y3         1 TEMP              0 ****  ****    0 ROOT
