@<TRIPOS>MOLECULE
molecule
   42    45     1     0     0
SMALL
bcc


@<TRIPOS>ATOM
      1 C1           0.0000     0.0000     0.0000 ca         1 4Y5      -0.078000
      2 C2           1.3770     0.0000     0.0000 ca         1 4Y5      -0.150000
      3 C3           2.0710     0.0000     1.2060 ca         1 4Y5       0.048600
      4 C4           1.3580     0.0010     2.4160 ca         1 4Y5      -0.262900
      5 C5          -0.0400     0.0030     2.4000 ca         1 4Y5       0.206900
      6 C6           2.3630     0.0020     3.4870 cc         1 4Y5       0.509500
      7 C11          8.4290    -0.3260     2.0320 ca         1 4Y5      -0.113000
      8 C12          7.7240    -1.4680     1.6970 ca         1 4Y5      -0.099000
      9 C16          2.7690    -0.8850     5.7820 ca         1 4Y5       0.135900
     10 C17          2.5150    -0.8830     7.1370 ca         1 4Y5      -0.153000
     11 C18          1.5740     0.0040     7.6690 ca         1 4Y5      -0.053600
     12 C21          1.3010     0.0070     9.1190 c          1 4Y5       0.877200
     13 O2           0.3940     0.8630     9.6320 o          1 4Y5      -0.825800
     14 O1           1.8930    -0.7610     9.8510 o          1 4Y5      -0.825800
     15 C19          0.8920     0.8870     6.8270 ca         1 4Y5      -0.114000
     16 C20          1.1460     0.8840     5.4740 ca         1 4Y5      -0.098000
     17 C15          2.0900     0.0040     4.9430 ca         1 4Y5      -0.196900
     18 F           -0.7320     0.0040     3.5610 f          1 4Y5      -0.119900
     19 C           -0.7070     0.0020     1.1940 ca         1 4Y5      -0.208000
     20 N            3.5460     0.0010     2.9230 nd         1 4Y5      -0.451300
     21 N1           3.4100    -0.0010     1.5310 n          1 4Y5      -0.102000
     22 C8           5.8210    -0.1140     1.1250 ca         1 4Y5      -0.061600
     23 C13          6.4230    -1.3710     1.2430 ca         1 4Y5       0.060400
     24 Cl           5.5380    -2.8030     0.8220 cl         1 4Y5      -0.077400
     25 C10          7.8380     0.9200     1.9170 ca         1 4Y5      -0.087000
     26 C9           6.5430     1.0340     1.4610 ca         1 4Y5      -0.131300
     27 C14          5.9020     2.3920     1.3360 c3         1 4Y5       0.668200
     28 F1           4.7720     2.4520     2.1590 f          1 4Y5      -0.214633
     29 F2           6.8160     3.3770     1.7270 f          1 4Y5      -0.214633
     30 F3           5.5220     2.6080     0.0070 f          1 4Y5      -0.214633
     31 H1          -0.5360    -0.0000    -0.9410 ha         1 4Y5       0.134000
     32 H2           1.9200    -0.0020    -0.9380 ha         1 4Y5       0.160000
     33 H3           9.4490    -0.4080     2.3890 ha         1 4Y5       0.142000
     34 H4           8.1930    -2.4400     1.7900 ha         1 4Y5       0.150000
     35 H5           3.0200    -1.5900     7.7840 ha         1 4Y5       0.166000
     36 H7           0.1610     1.5730     7.2390 ha         1 4Y5       0.166000
     37 H8           0.6180     1.5690     4.8230 ha         1 4Y5       0.124000
     38 H9          -1.7900     0.0020     1.1790 ha         1 4Y5       0.144000
     39 H10          8.3980     1.8100     2.1790 ha         1 4Y5       0.154000
     40 C7           4.4280    -0.0020     0.6470 c          1 4Y5       0.709700
     41 O            4.1990     0.0890    -0.5430 o          1 4Y5      -0.551100
     42 F4           3.6780    -1.7410     5.2670 f          1 4Y5      -0.152900
@<TRIPOS>BOND
     1     1     2 ar  
     2     1    19 ar  
     3     2     3 ar  
     4    19     5 ar  
     5    41    40 2   
     6     3     4 ar  
     7     3    21 1   
     8     5     4 ar  
     9     5    18 1   
    10    24    23 1   
    11    40    21 1   
    12    40    22 1   
    13     4     6 1   
    14    21    20 1   
    15    23    22 ar  
    16    23     8 ar  
    17    22    26 ar  
    18    28    27 1   
    19     6    20 2   
    20     6    17 1   
    21     8     7 ar  
    22    26    27 1   
    23    26    25 ar  
    24    27    29 1   
    25    27    30 1   
    26     7    25 ar  
    27    17    16 ar  
    28    17     9 ar  
    29    42     9 1   
    30    16    15 ar  
    31     9    10 ar  
    32    15    11 ar  
    33    10    11 ar  
    34    11    12 1   
    35    12    14 1   
    36    12    13 1   
    37     1    31 1   
    38     2    32 1   
    39     7    33 1   
    40     8    34 1   
    41    10    35 1   
    42    15    36 1   
    43    16    37 1   
    44    19    38 1   
    45    25    39 1   
@<TRIPOS>SUBSTRUCTURE
     1 4Y5         1 TEMP              0 ****  ****    0 ROOT
