@<TRIPOS>MOLECULE
molecule
   49    52     1     0     0
SMALL
bcc


@<TRIPOS>ATOM
      1 F3           0.0000     0.0000     0.0000 f          1 4Y6      -0.118900
      2 C            1.3510     0.0000     0.0000 ca         1 4Y6       0.210900
      3 C5           2.0530     0.0000     1.2080 ca         1 4Y6      -0.265900
      4 C6           1.6480     0.0020     2.6210 cc         1 4Y6       0.503200
      5 C15          0.2630     0.0030     3.1300 ce         1 4Y6      -0.191800
      6 C20         -0.5020     1.0300     2.8390 c2         1 4Y6      -0.099200
      7 C19         -1.9300     1.1600     3.2810 c3         1 4Y6      -0.022200
      8 C18         -2.2170     0.1890     4.4280 c3         1 4Y6      -0.162000
      9 C22         -1.4850     0.6500     5.6890 c3         1 4Y6      -0.070100
     10 C21         -3.7000     0.1410     4.6920 c          1 4Y6       0.899600
     11 O2          -4.3000    -0.9020     4.5860 o          1 4Y6      -0.845800
     12 O1          -4.3540     1.2580     5.0450 o          1 4Y6      -0.845800
     13 C17         -1.7180    -1.2040     4.0220 c3         1 4Y6      -0.052400
     14 C16         -0.1920    -1.1720     3.9460 c3         1 4Y6      -0.030200
     15 N            2.7400     0.0020     3.3480 nd         1 4Y6      -0.462300
     16 N1           3.8650     0.0000     2.5170 n          1 4Y6      -0.103000
     17 C4           3.4590    -0.0000     1.2010 ca         1 4Y6       0.065600
     18 C3           4.1380    -0.0020    -0.0130 ca         1 4Y6      -0.147000
     19 C2           3.4330    -0.0030    -1.1950 ca         1 4Y6      -0.093000
     20 C1           2.0450    -0.0080    -1.1910 ca         1 4Y6      -0.214000
     21 C7           5.1460     0.0010     2.9380 c          1 4Y6       0.707700
     22 O            6.0500     0.1000     2.1330 o          1 4Y6      -0.546100
     23 C8           5.4490    -0.1190     4.3790 ca         1 4Y6      -0.061600
     24 C13          5.7210    -1.3710     4.9370 ca         1 4Y6      -0.135300
     25 C14          5.7040    -2.6030     4.0700 c3         1 4Y6       0.669200
     26 F2           4.4350    -2.7560     3.5010 f          1 4Y6      -0.215633
     27 F1           6.6580    -2.4730     3.0550 f          1 4Y6      -0.215633
     28 F            6.0030    -3.7260     4.8490 f          1 4Y6      -0.215633
     29 C12          6.0040    -1.4760     6.2820 ca         1 4Y6      -0.088000
     30 C11          6.0200    -0.3450     7.0800 ca         1 4Y6      -0.113000
     31 C10          5.7530     0.8980     6.5350 ca         1 4Y6      -0.098000
     32 C9           5.4730     1.0190     5.1880 ca         1 4Y6       0.061400
     33 Cl           5.1440     2.5810     4.5050 cl         1 4Y6      -0.075400
     34 H1          -0.0760     1.8310     2.2460 ha         1 4Y6       0.101000
     35 H2          -2.1100     2.1730     3.6170 hc         1 4Y6       0.065200
     36 H3          -2.5840     0.9310     2.4480 hc         1 4Y6       0.065200
     37 H4          -2.0300     1.4690     6.1440 hc         1 4Y6       0.025367
     38 H5          -0.4870     0.9820     5.4270 hc         1 4Y6       0.025367
     39 H6          -1.4190    -0.1730     6.3900 hc         1 4Y6       0.025367
     40 H8          -2.1240    -1.4670     3.0530 hc         1 4Y6       0.052200
     41 H9          -2.0290    -1.9310     4.7630 hc         1 4Y6       0.052200
     42 H10          0.2150    -1.0910     4.9470 hc         1 4Y6       0.039700
     43 H11          0.1620    -2.0860     3.4830 hc         1 4Y6       0.039700
     44 H12          5.1820     0.0500    -0.2990 ha         1 4Y6       0.156000
     45 H13          3.9200     0.0030    -2.1630 ha         1 4Y6       0.133000
     46 H14          1.5230    -0.0110    -2.1400 ha         1 4Y6       0.143000
     47 H15          6.2140    -2.4460     6.7150 ha         1 4Y6       0.154000
     48 H16          6.2420    -0.4350     8.1370 ha         1 4Y6       0.143000
     49 H17          5.7700     1.7790     7.1650 ha         1 4Y6       0.151000
@<TRIPOS>BOND
     1    19    18 ar  
     2    19    20 ar  
     3    18    17 ar  
     4    20     2 ar  
     5    22    21 2   
     6    17    16 1   
     7    17     3 ar  
     8    21    16 1   
     9    21    23 1   
    10     2     3 ar  
    11     2     1 1   
    12    33    32 1   
    13    16    15 1   
    14     3     4 1   
    15    27    25 1   
    16    23    32 ar  
    17    23    24 ar  
    18    32    31 ar  
    19    15     4 2   
    20    31    30 ar  
    21    24    25 1   
    22    24    29 ar  
    23     4     5 1   
    24    25    28 1   
    25    25    26 1   
    26    30    29 ar  
    27     5     6 2   
    28     5    14 1   
    29     6     7 1   
    30    14    13 1   
    31     7     8 1   
    32    13     8 1   
    33     8     9 1   
    34     8    10 1   
    35    10    11 1   
    36    10    12 1   
    37     6    34 1   
    38     7    35 1   
    39     7    36 1   
    40     9    37 1   
    41     9    38 1   
    42     9    39 1   
    43    13    40 1   
    44    13    41 1   
    45    14    42 1   
    46    14    43 1   
    47    18    44 1   
    48    19    45 1   
    49    20    46 1   
    50    29    47 1   
    51    30    48 1   
    52    31    49 1   
@<TRIPOS>SUBSTRUCTURE
     1 4Y6         1 TEMP              0 ****  ****    0 ROOT
