@<TRIPOS>MOLECULE
molecule
   42    45     1     0     0
SMALL
bcc


@<TRIPOS>ATOM
      1 C10          0.0000     0.0000     0.0000 ca         1 4Y7      -0.114000
      2 C11          1.3840     0.0000     0.0000 ca         1 4Y7      -0.088000
      3 C13          3.5850     0.0010     1.1880 c3         1 4Y7       0.669200
      4 C14          2.8510    -4.8070     4.2000 ca         1 4Y7      -0.179900
      5 C17          2.8940    -7.5450     3.7240 ca         1 4Y7      -0.061600
      6 C15          3.5100    -5.6640     5.0900 ca         1 4Y7       0.122900
      7 C16          3.5320    -7.0200     4.8540 ca         1 4Y7      -0.132000
      8 C20          2.9170    -8.9950     3.4720 c          1 4Y7       0.875200
      9 O3           2.3630    -9.4500     2.4900 o          1 4Y7      -0.816300
     10 O2           3.5510    -9.8190     4.3290 o          1 4Y7      -0.816300
     11 C18          2.2340    -6.6860     2.8330 ca         1 4Y7       0.108100
     12 O1           1.6140    -7.1910     1.7360 oh         1 4Y7      -0.463100
     13 C19          2.2140    -5.3240     3.0740 ca         1 4Y7      -0.158000
     14 C5           2.8250    -3.3500     4.4620 cc         1 4Y7       0.405900
     15 C4           3.3300    -2.6760     5.6660 ca         1 4Y7       0.308000
     16 N            3.9070    -3.1060     6.7840 nb         1 4Y7      -0.603000
     17 C            4.2720    -2.2740     7.7320 ca         1 4Y7       0.385200
     18 N1           2.3520    -2.4300     3.6570 nd         1 4Y7      -0.473300
     19 N2           2.4970    -1.1660     4.2390 n          1 4Y7      -0.099000
     20 C3           3.0960    -1.3030     5.4720 ca         1 4Y7      -0.084700
     21 C2           3.4730    -0.4040     6.4670 ca         1 4Y7      -0.093000
     22 C1           4.0720    -0.9050     7.6070 ca         1 4Y7      -0.246300
     23 C6           2.1160     0.0000     3.6810 c          1 4Y7       0.706700
     24 O            2.3770     1.0510     4.2320 o          1 4Y7      -0.549100
     25 C7           1.3800    -0.0000     2.4020 ca         1 4Y7      -0.060600
     26 C12          2.0780     0.0000     1.1910 ca         1 4Y7      -0.132300
     27 F2           4.0480     0.0010    -0.1320 f          1 4Y7      -0.213967
     28 F1           4.0520     1.1430     1.8460 f          1 4Y7      -0.213967
     29 F            4.0530    -1.1410     1.8460 f          1 4Y7      -0.213967
     30 C9          -0.6990     0.0050     1.1930 ca         1 4Y7      -0.100000
     31 C8          -0.0170     0.0120     2.3950 ca         1 4Y7       0.056400
     32 Cl          -0.8950     0.0120     3.8930 cl         1 4Y7      -0.078400
     33 H1          -0.5390    -0.0030    -0.9400 ha         1 4Y7       0.143000
     34 H2           1.9230    -0.0040    -0.9390 ha         1 4Y7       0.155000
     35 H3           4.0430    -7.6810     5.5430 ha         1 4Y7       0.180000
     36 H5           1.9110    -6.7320     0.9670 ho         1 4Y7       0.395000
     37 H6           1.7050    -4.6590     2.3870 ha         1 4Y7       0.134000
     38 H7           4.7250    -2.6920     8.6230 h4         1 4Y7       0.023100
     39 H8           3.3620     0.6640     6.6100 ha         1 4Y7       0.158000
     40 H9           4.4120    -0.2830     8.4260 ha         1 4Y7       0.135000
     41 H10         -1.7820     0.0100     1.1860 ha         1 4Y7       0.150000
     42 F3           4.1250    -5.1590     6.1810 f          1 4Y7      -0.120900
@<TRIPOS>BOND
     1    22    21 ar
     2    22    17 ar
     3    21    20 ar
     4    17    16 ar
     5    24    23 2
     6    20    19 1
     7    20    15 ar
     8    32    31 1
     9    16    15 ar
    10    23    19 1
    11    23    25 1
    12    19    18 1
    13    15    14 1
    14    31    25 ar
    15    31    30 ar
    16    25    26 ar
    17    29     3 1
    18    18    14 2
    19    14     4 1
    20    30     1 ar
    21    26     3 1
    22    26     2 ar
    23     3    27 1
    24     3    28 1
    25     4    13 ar
    26     4     6 ar
    27     1     2 ar
    28    42     6 1
    29    13    11 ar
    30     6     7 ar
    31    11    12 1
    32    11     5 ar
    33     7     5 ar
    34     5     8 1
    35     8     9 1
    36     8    10 1
    37     1    33 1
    38     2    34 1
    39     7    35 1
    40    12    36 1
    41    13    37 1
    42    17    38 1
    43    21    39 1
    44    22    40 1
    45    30    41 1
@<TRIPOS>SUBSTRUCTURE
     1 4Y7         1 TEMP              0 ****  ****    0 ROOT
