@<TRIPOS>MOLECULE
molecule
   11    10     1     0     0
SMALL
bcc


@<TRIPOS>ATOM
      1 O            0.0000     0.0000     0.0000 o          1 4Y8      -0.488100
      2 C            1.2080     0.0000     0.0000 c          1 4Y8       0.554100
      3 CM2          1.9600     0.0000     1.3060 c3         1 4Y8      -0.193100
      4 CM1          1.9620    -0.0060    -1.3040 c3         1 4Y8       0.040400
      5 O1           1.0340    -0.0100    -2.3910 oh         1 4Y8      -0.582800
      6 H1           2.5720    -0.8920     1.3700 hc         1 4Y8       0.062033
      7 H2           2.5940     0.8770     1.3580 hc         1 4Y8       0.062033
      8 H3           1.2560     0.0140     2.1290 hc         1 4Y8       0.062033
      9 H4           2.5860     0.8770    -1.3650 h1         1 4Y8       0.040700
     10 H5           2.5840    -0.8920    -1.3570 h1         1 4Y8       0.040700
     11 H6           1.5060    -0.0130    -3.2070 ho         1 4Y8       0.403000
@<TRIPOS>BOND
     1     1     2 2
     2     2     3 1
     3     2     4 1
     4     4     5 1
     5     3     6 1
     6     3     7 1
     7     3     8 1
     8     4     9 1
     9     4    10 1
    10     5    11 1
@<TRIPOS>SUBSTRUCTURE
     1 4Y8         1 TEMP              0 ****  ****    0 ROOT
