@<TRIPOS>MOLECULE
4Y8
   11    10     1     0     0
SMALL
bcc


@<TRIPOS>ATOM
      1 O           0.0160   -0.1630   -0.2780 o         1 4Y8     -0.530100
      2 C           1.2380   -0.0570   -0.1250 c         1 4Y8      0.532100
      3 CM2         1.8950    0.0060    1.2110 c3        1 4Y8     -0.201100
      4 CM1         2.1650    0.0030   -1.3160 c3        1 4Y8      0.029400
      5 O1          1.5040    0.3480   -2.5130 oh        1 4Y8     -0.589800
      6 H1          2.7940   -0.6560    1.2320 hc        1 4Y8      0.068700
      7 H2          1.1890   -0.3080    2.0180 hc        1 4Y8      0.068700
      8 H3          2.2210    1.0580    1.4110 hc        1 4Y8      0.068700
      9 H4          2.9480    0.7940   -1.1690 h1        1 4Y8      0.066200
     10 H5          2.6630   -0.9990   -1.4330 h1        1 4Y8      0.066200
     11 H6          0.6290   -0.0680   -2.4980 ho        1 4Y8      0.421000
@<TRIPOS>BOND
     1    1    2 2   
     2    2    3 1   
     3    2    4 1   
     4    3    6 1   
     5    3    7 1   
     6    3    8 1   
     7    4    5 1   
     8    4    9 1   
     9    4   10 1   
    10    5   11 1   
@<TRIPOS>SUBSTRUCTURE
     1 4Y8         1 TEMP              0 ****  ****    0 ROOT
