@<TRIPOS>MOLECULE
molecule
   62    63     1     0     0
SMALL
bcc


@<TRIPOS>ATOM
      1 C1           0.0000     0.0000     0.0000 c3         1 4YA       0.327900
      2 C2           1.5310     0.0000     0.0000 c3         1 4YA       0.131100
      3 O2           2.0090     1.1660    -0.6720 oh         1 4YA      -0.597800
      4 C3           2.0340     0.0000     1.4470 c3         1 4YA       0.121100
      5 O3           3.4610    -0.0750     1.4570 oh         1 4YA      -0.601800
      6 C4           1.4530    -1.2140     2.1780 c3         1 4YA       0.103100
      7 O4           1.9290    -2.4140     1.5660 oh         1 4YA      -0.586800
      8 C5          -0.0750    -1.1670     2.0940 c3         1 4YA       0.134100
      9 O5          -0.4750    -1.1380     0.7220 os         1 4YA      -0.415600
     10 C6          -0.6620    -2.4080     2.7700 c3         1 4YA      -0.083100
     11 O6          -6.0380     4.2450     1.4180 oh         1 4YA      -0.599800
     12 C6B         -2.4570     0.2340    10.1470 c3         1 4YA      -0.092100
     13 C5B         -2.7630     1.2100     9.0090 c3         1 4YA      -0.084400
     14 C4B         -2.3630     0.5770     7.6740 c3         1 4YA      -0.080400
     15 C3B         -2.6690     1.5520     6.5360 c3         1 4YA      -0.081400
     16 C2B         -2.2700     0.9190     5.2010 c3         1 4YA      -0.082400
     17 C1B         -2.5760     1.8950     4.0620 c3         1 4YA       0.134400
     18 C1A         -2.4450     2.1200     1.6800 c3         1 4YA       0.353900
     19 O5A         -3.8300     2.4060     1.4690 os         1 4YA      -0.415600
     20 C5A         -4.0830     3.2840     0.3700 c3         1 4YA       0.149100
     21 C6A         -5.5870     3.5410     0.2590 c3         1 4YA       0.149400
     22 C4A         -3.5770     2.6400    -0.9230 c3         1 4YA       0.087100
     23 O4A         -4.2950     1.4280    -1.1650 oh         1 4YA      -0.572800
     24 C3A         -2.0830     2.3320    -0.7810 c3         1 4YA       0.122100
     25 O3A         -1.6180     1.6650    -1.9570 oh         1 4YA      -0.590800
     26 C2A         -1.8730     1.4290     0.4380 c3         1 4YA       0.128100
     27 O2A         -0.4760     1.1940     0.6240 os         1 4YA      -0.428600
     28 H1          -0.3590    -0.0470    -1.0210 h2         1 4YA       0.102700
     29 H2           1.8910    -0.8880    -0.5060 h1         1 4YA       0.079700
     30 H3           2.5750     0.9100    -1.3820 ho         1 4YA       0.405000
     31 H4           1.7110     0.9080     1.9410 h1         1 4YA       0.062700
     32 H5           3.8080     0.6240     1.9870 ho         1 4YA       0.402000
     33 H6           1.7570    -1.1880     3.2180 h1         1 4YA       0.037700
     34 H7           2.4790    -2.8800     2.1730 ho         1 4YA       0.401000
     35 H8          -0.4350    -0.2740     2.5920 h1         1 4YA       0.071700
     36 H9          -0.4120    -3.2880     2.1900 hc         1 4YA       0.046367
     37 H10         -1.7390    -2.3100     2.8320 hc         1 4YA       0.046367
     38 H11         -0.2510    -2.5040     3.7680 hc         1 4YA       0.046367
     39 H12         -6.8730     4.6450     1.2380 ho         1 4YA       0.402000
     40 H13         -1.3960     0.0170    10.1610 hc         1 4YA       0.033033
     41 H14         -3.0120    -0.6830     9.9940 hc         1 4YA       0.033033
     42 H15         -2.7470     0.6790    11.0910 hc         1 4YA       0.033033
     43 H16         -2.2020     2.1250     9.1570 hc         1 4YA       0.040700
     44 H17         -3.8230     1.4340     9.0000 hc         1 4YA       0.040700
     45 H18         -2.9240    -0.3380     7.5260 hc         1 4YA       0.042200
     46 H19         -1.3030     0.3530     7.6830 hc         1 4YA       0.042200
     47 H20         -3.7290     1.7760     6.5270 hc         1 4YA       0.043200
     48 H21         -2.1070     2.4670     6.6830 hc         1 4YA       0.043200
     49 H22         -2.8320     0.0050     5.0530 hc         1 4YA       0.050700
     50 H23         -1.2100     0.6950     5.2100 hc         1 4YA       0.050700
     51 H24         -1.9520     2.7750     4.1630 h1         1 4YA       0.034700
     52 H25         -3.6190     2.1850     4.1050 h1         1 4YA       0.034700
     53 H26         -1.9100     3.0450     1.8540 h2         1 4YA       0.031700
     54 H27         -3.5630     4.2210     0.5320 h1         1 4YA       0.047700
     55 H28         -6.1100     2.5950     0.1850 h1         1 4YA       0.036700
     56 H29         -5.7880     4.1340    -0.6250 h1         1 4YA       0.036700
     57 H30         -3.7270     3.3250    -1.7480 h1         1 4YA       0.035700
     58 H31         -4.7650     1.4980    -1.9790 ho         1 4YA       0.401000
     59 H32         -1.5360     3.2560    -0.6430 h1         1 4YA       0.048700
     60 H33         -1.3410     2.3040    -2.5920 ho         1 4YA       0.403000
     61 H34         -2.3860     0.4870     0.2820 h1         1 4YA       0.104700
     62 O1          -2.3040     1.2600     2.8120 os         1 4YA      -0.399600
@<TRIPOS>BOND
     1    10     8 1   
     2     7     6 1   
     3     8     9 1   
     4     8     6 1   
     5     9     1 1   
     6     6     4 1   
     7    23    22 1   
     8    62    17 1   
     9    62    18 1   
    10     1     2 1   
    11     1    27 1   
    12    19    18 1   
    13    19    20 1   
    14    26    18 1   
    15    26    27 1   
    16    26    24 1   
    17    17    16 1   
    18    25    24 1   
    19    21    20 1   
    20    21    11 1   
    21    22    24 1   
    22    22    20 1   
    23     4     2 1   
    24     4     5 1   
    25     2     3 1   
    26    16    15 1   
    27    15    14 1   
    28    14    13 1   
    29    13    12 1   
    30     1    28 1   
    31     2    29 1   
    32     3    30 1   
    33     4    31 1   
    34     5    32 1   
    35     6    33 1   
    36     7    34 1   
    37     8    35 1   
    38    10    36 1   
    39    10    37 1   
    40    10    38 1   
    41    11    39 1   
    42    12    40 1   
    43    12    41 1   
    44    12    42 1   
    45    13    43 1   
    46    13    44 1   
    47    14    45 1   
    48    14    46 1   
    49    15    47 1   
    50    15    48 1   
    51    16    49 1   
    52    16    50 1   
    53    17    51 1   
    54    17    52 1   
    55    18    53 1   
    56    20    54 1   
    57    21    55 1   
    58    21    56 1   
    59    22    57 1   
    60    23    58 1   
    61    24    59 1   
    62    25    60 1   
    63    26    61 1   
@<TRIPOS>SUBSTRUCTURE
     1 4YA         1 TEMP              0 ****  ****    0 ROOT
