@<TRIPOS>MOLECULE
4YB
   59    62     1     0     0
SMALL
bcc


@<TRIPOS>ATOM
      1 C1           0.0000     0.0000     0.0000 ca         1 4YB       0.261800
      2 C2           1.4050     0.0000     0.0000 ca         1 4YB      -0.229200
      3 C3           2.0690     0.0000     1.2380 ca         1 4YB       0.591200
      4 C4           0.7590    -0.0030    -2.0710 cc         1 4YB       0.260700
      5 N1           1.3380     0.0000     2.3480 nb         1 4YB      -0.737000
      6 N2          -0.6460     0.0000     1.1620 nb         1 4YB      -0.665000
      7 O1           5.4310    -2.2010    -9.5980 o          1 4YB      -0.873300
      8 O2           7.0230    -1.3540    -8.3040 o          1 4YB      -0.873300
      9 C6           5.7930    -3.3480    -7.5970 ca         1 4YB      -0.012600
     10 C7           6.8170    -4.1860    -7.1650 ca         1 4YB      -0.094000
     11 C8           6.5510    -5.1920    -6.2540 ca         1 4YB      -0.105000
     12 C9           5.2690    -5.3740    -5.7650 ca         1 4YB      -0.155000
     13 C10          4.2380    -4.5520    -6.1800 ca         1 4YB      -0.095000
     14 C11          4.4880    -3.5290    -7.0930 ca         1 4YB      -0.166600
     15 C12          3.3950    -2.6460    -7.5360 c          1 4YB       0.586700
     16 O3           3.6350    -1.6920    -8.2450 o          1 4YB      -0.484100
     17 C13          1.9780    -2.9300    -7.1070 c3         1 4YB      -0.115400
     18 C14          1.0450    -1.8710    -7.6990 c3         1 4YB      -0.088400
     19 C15         -0.3710    -2.1530    -7.2700 c          1 4YB       0.638100
     20 O4          -0.6110    -3.1070    -6.5600 o          1 4YB      -0.591100
     21 N3          -1.3720    -1.3460    -7.6740 ns         1 4YB      -0.348300
     22 S1          -2.9290    -1.6570    -7.2030 s6         1 4YB       1.363100
     23 O5          -3.7290    -0.6220    -7.7560 o          1 4YB      -0.593800
     24 O6          -3.1570    -3.0360    -7.4570 o          1 4YB      -0.593800
     25 O7          -2.9850    -1.4820    -5.6920 os         1 4YB      -0.439500
     26 C16         -2.9670    -0.1190    -5.2630 c3         1 4YB       0.252400
     27 C17         -3.0270    -0.0650    -3.7350 c3         1 4YB       0.157100
     28 O8          -1.7930    -0.5500    -3.1650 os         1 4YB      -0.383600
     29 C18         -3.1350     1.3980    -3.2530 c3         1 4YB       0.133100
     30 O9          -4.4940     1.7300    -2.9580 oh         1 4YB      -0.549800
     31 C19         -2.2770     1.4360    -1.9690 c3         1 4YB       0.123100
     32 O10         -3.0800     1.7900    -0.8410 oh         1 4YB      -0.540800
     33 C20         -1.7530    -0.0110    -1.8270 c3         1 4YB       0.151800
     34 N4          -0.3780    -0.0070    -1.3190 na         1 4YB       0.199000
     35 N5           1.8040    -0.0010    -1.2950 nd         1 4YB      -0.483100
     36 C21          0.0180     0.0010     2.2980 ca         1 4YB       0.674900
     37 N6           3.4510    -0.0000     1.3010 nv         1 4YB      -0.507500
     38 H1           0.7890    -0.0030    -3.1540 h5         1 4YB       0.043800
     39 H5           5.0730    -6.1670    -5.0540 ha         1 4YB       0.085000
     40 H6           3.2380    -4.6990    -5.7910 ha         1 4YB       0.094000
     41 H7           1.9150    -2.9030    -6.0260 hc         1 4YB       0.040700
     42 H8           1.6830    -3.9100    -7.4630 hc         1 4YB       0.040700
     43 H9           1.3410    -0.8910    -7.3450 hc         1 4YB       0.047200
     44 H10          1.1080    -1.8980    -8.7800 hc         1 4YB       0.047200
     45 H11         -1.1750    -0.5610    -8.2630 hn         1 4YB       0.236500
     46 H12         -3.8230     0.4010    -5.6770 h1         1 4YB       0.018700
     47 H13         -2.0560     0.3560    -5.6060 h1         1 4YB       0.018700
     48 H14         -3.8640    -0.6450    -3.3640 h1         1 4YB       0.056700
     49 H15         -2.7280     2.0710    -3.9980 h1         1 4YB       0.012700
     50 H16         -4.7300     2.5210    -3.4120 ho         1 4YB       0.388000
     51 H17         -1.4510     2.1270    -2.0870 h1         1 4YB       0.020700
     52 H18         -2.8880     2.6780    -0.5860 ho         1 4YB       0.390000
     53 H19         -2.4010    -0.5820    -1.1730 h2         1 4YB       0.070700
     54 H20         -0.5200     0.0110     3.2390 h5         1 4YB      -0.007900
     55 H21          3.9180    -0.4790     2.0450 hn         1 4YB       0.277300
     56 H22          3.9840     0.4660     0.5930 hn         1 4YB       0.277300
     57 H3           7.8230    -4.0500    -7.5420 ha         1 4YB       0.115000
     58 C5           6.0730    -2.2720    -8.5700 c          1 4YB       0.973200
     59 H4           7.3510    -5.8410    -5.9210 ha         1 4YB       0.082000
@<TRIPOS>BOND
     1     1     2 ar  
     2     1     6 ar  
     3     1    34 1   
     4     2     3 ar  
     5     2    35 1   
     6     3     5 ar  
     7     3    37 1   
     8     4    34 1   
     9     4    35 2   
    10     4    38 1   
    11     5    36 ar  
    12     6    36 ar  
    13     7    58 1   
    14     8    58 1   
    15     9    10 ar  
    16     9    14 ar  
    17     9    58 1   
    18    10    11 ar  
    19    10    57 1   
    20    11    12 ar  
    21    11    59 1   
    22    12    13 ar  
    23    12    39 1   
    24    13    14 ar  
    25    13    40 1   
    26    14    15 1   
    27    15    16 2   
    28    15    17 1   
    29    17    18 1   
    30    17    41 1   
    31    17    42 1   
    32    18    19 1   
    33    18    43 1   
    34    18    44 1   
    35    19    20 2   
    36    19    21 1   
    37    21    22 1   
    38    21    45 1   
    39    22    23 2   
    40    22    24 2   
    41    22    25 1   
    42    25    26 1   
    43    26    27 1   
    44    26    46 1   
    45    26    47 1   
    46    27    28 1   
    47    27    29 1   
    48    27    48 1   
    49    28    33 1   
    50    29    30 1   
    51    29    31 1   
    52    29    49 1   
    53    30    50 1   
    54    31    32 1   
    55    31    33 1   
    56    31    51 1   
    57    32    52 1   
    58    33    34 1   
    59    33    53 1   
    60    36    54 1   
    61    37    55 1   
    62    37    56 1   
@<TRIPOS>SUBSTRUCTURE
     1 4YB         1 TEMP              0 ****  ****    0 ROOT
