@<TRIPOS>MOLECULE
4YC
   47    49     1     0     0
SMALL
bcc


@<TRIPOS>ATOM
      1 C1           0.0000     0.0000     0.0000 c3         1 4YC      -0.004100
      2 C2           1.5300     0.0000     0.0000 c3         1 4YC      -0.055500
      3 C3           2.0400     0.0000     1.4430 c3         1 4YC       0.139800
      4 N4           3.5090     0.0200     1.4410 n3         1 4YC      -0.508600
      5 C5           4.0390    -0.0360     2.8090 c3         1 4YC       0.066800
      6 C6           5.5280    -0.2620     2.7630 c          1 4YC       0.576100
      7 C10          7.9990    -0.5860     5.4950 c3         1 4YC      -0.015700
      8 C11          8.5920    -1.9390     5.8950 c3         1 4YC       0.013900
      9 C12          8.9660     0.5450     5.8520 c3         1 4YC       0.013900
     10 C13          6.6630    -0.3740     6.1710 ca         1 4YC      -0.113300
     11 C14          6.3270    -0.3010     7.5100 ca         1 4YC      -0.025000
     12 C15          5.0130    -0.0970     7.8850 ca         1 4YC      -0.103000
     13 C16          4.0330     0.0330     6.9170 ca         1 4YC      -0.004600
     14 C19          5.6900    -0.2450     5.1940 ca         1 4YC      -0.093400
     15 C21          3.4890     1.1930    -0.7080 c3         1 4YC      -0.020200
     16 O7           6.0930    -0.3650     1.6940 o          1 4YC      -0.635100
     17 N8           6.2330    -0.3480     3.9090 n          1 4YC       0.044000
     18 C9           7.6800    -0.5630     3.9910 c3         1 4YC       0.041000
     19 C18          4.3640    -0.0390     5.5790 ca         1 4YC      -0.171000
     20 C20          4.0140     1.2020     0.7290 c3         1 4YC       0.118800
     21 N22          2.0190     1.2000    -0.6920 ny         1 4YC       0.030000
     22 H23         -0.3610    -0.0090    -1.0210 hc         1 4YC       0.036700
     23 H25         -0.3610    -0.8800     0.5180 hc         1 4YC       0.036700
     24 H24         -0.3610     0.8890     0.5030 hc         1 4YC       0.036700
     25 H26          1.8950    -0.8830    -0.5100 hx         1 4YC       0.102700
     26 H27          1.6930    -0.8930     1.9480 h1         1 4YC       0.043200
     27 H28          1.6690     0.8790     1.9560 h1         1 4YC       0.043200
     28 H30          3.5670    -0.8500     3.3460 h1         1 4YC       0.051700
     29 H29          3.8310     0.8990     3.3150 h1         1 4YC       0.051700
     30 H35          9.4670    -2.1420     5.2900 hc         1 4YC       0.013700
     31 H33          8.8720    -1.9150     6.9410 hc         1 4YC       0.013700
     32 H34          7.8550    -2.7170     5.7360 hc         1 4YC       0.013700
     33 H37          8.4910     1.5000     5.6630 hc         1 4YC       0.013700
     34 H36          9.8600     0.4600     5.2450 hc         1 4YC       0.013700
     35 H38          9.2330     0.4750     6.8990 hc         1 4YC       0.013700
     36 H39          7.0960    -0.4030     8.2660 ha         1 4YC       0.118000
     37 H40          4.7410    -0.1120     8.9340 ha         1 4YC       0.128000
     38 H44          3.8470     2.0730    -1.2280 hx         1 4YC       0.086200
     39 H45          3.8390     0.3010    -1.2130 hx         1 4YC       0.086200
     40 H32          8.1970     0.2650     3.5230 h1         1 4YC       0.044200
     41 H31          7.9300    -1.5210     3.5520 h1         1 4YC       0.044200
     42 H41          3.5930     0.0640     4.8260 ha         1 4YC       0.121000
     43 H43          5.0970     1.1800     0.7160 h1         1 4YC       0.061700
     44 H42          3.6710     2.0990     1.2310 h1         1 4YC       0.061700
     45 H47          1.6770     1.2040    -1.6320 hn         1 4YC       0.239300
     46 H46          1.6960     2.0160    -0.2110 hn         1 4YC       0.239300
     47 Cl1          2.3810     0.2890     7.3870 cl         1 4YC      -0.011400
@<TRIPOS>BOND
     1     1     2 1   
     2     1    22 1   
     3     1    23 1   
     4     1    24 1   
     5     2     3 1   
     6     2    21 1   
     7     2    25 1   
     8     3     4 1   
     9     3    26 1   
    10     3    27 1   
    11     4     5 1   
    12     4    20 1   
    13     5     6 1   
    14     5    28 1   
    15     5    29 1   
    16     6    16 2   
    17     6    17 1   
    18     7     8 1   
    19     7     9 1   
    20     7    10 1   
    21     7    18 1   
    22     8    30 1   
    23     8    31 1   
    24     8    32 1   
    25     9    33 1   
    26     9    34 1   
    27     9    35 1   
    28    10    11 ar  
    29    10    14 ar  
    30    11    12 ar  
    31    11    36 1   
    32    12    13 ar  
    33    12    37 1   
    34    13    19 ar  
    35    13    47 1   
    36    14    17 1   
    37    14    19 ar  
    38    15    20 1   
    39    15    21 1   
    40    15    38 1   
    41    15    39 1   
    42    17    18 1   
    43    18    40 1   
    44    18    41 1   
    45    19    42 1   
    46    20    43 1   
    47    20    44 1   
    48    21    45 1   
    49    21    46 1   
@<TRIPOS>SUBSTRUCTURE
     1 4YC         1 TEMP              0 ****  ****    0 ROOT
