@<TRIPOS>MOLECULE
molecule
   47    49     1     0     0
SMALL
bcc


@<TRIPOS>ATOM
      1 C1           0.0000     0.0000     0.0000 c3         1 4YC      -0.123100
      2 C2           1.5300     0.0000     0.0000 c3         1 4YC       0.108500
      3 C3           2.0400     0.0000     1.4430 c3         1 4YC       0.143800
      4 N4           3.5090     0.0200     1.4410 n3         1 4YC      -0.713600
      5 C5           4.0390    -0.0360     2.8090 c3         1 4YC       0.083800
      6 C6           5.5280    -0.2620     2.7630 c          1 4YC       0.674100
      7 C10          7.9990    -0.5860     5.4950 c3         1 4YC      -0.032700
      8 C11          8.5920    -1.9390     5.8950 c3         1 4YC      -0.080100
      9 C12          8.9660     0.5450     5.8520 c3         1 4YC      -0.080100
     10 C13          6.6630    -0.3740     6.1710 ca         1 4YC      -0.108300
     11 C14          6.3270    -0.3010     7.5100 ca         1 4YC      -0.063000
     12 C15          5.0130    -0.0970     7.8850 ca         1 4YC      -0.132000
     13 C16          4.0330     0.0330     6.9170 ca         1 4YC       0.059400
     14 C19          5.6900    -0.2450     5.1940 ca         1 4YC       0.045600
     15 C21          3.4890     1.1930    -0.7080 c3         1 4YC       0.103800
     16 O7           6.0930    -0.3650     1.6940 o          1 4YC      -0.588100
     17 N8           6.2330    -0.3480     3.9090 n          1 4YC      -0.362000
     18 C9           7.6800    -0.5630     3.9910 c3         1 4YC       0.115000
     19 C18          4.3640    -0.0390     5.5790 ca         1 4YC      -0.185000
     20 C20          4.0140     1.2020     0.7290 c3         1 4YC       0.132800
     21 N22          2.0190     1.2000    -0.6920 ny         1 4YC      -0.735000
     22 H23         -0.3610    -0.0090    -1.0210 hc         1 4YC       0.075033
     23 H25         -0.3610    -0.8800     0.5180 hc         1 4YC       0.075033
     24 H24         -0.3610     0.8890     0.5030 hc         1 4YC       0.075033
     25 H26          1.8950    -0.8830    -0.5100 hx         1 4YC       0.128700
     26 H27          1.6930    -0.8930     1.9480 h1         1 4YC       0.073200
     27 H28          1.6690     0.8790     1.9560 h1         1 4YC       0.073200
     28 H30          3.5670    -0.8500     3.3460 h1         1 4YC       0.079700
     29 H29          3.8310     0.8990     3.3150 h1         1 4YC       0.079700
     30 H35          9.4670    -2.1420     5.2900 hc         1 4YC       0.047033
     31 H33          8.8720    -1.9150     6.9410 hc         1 4YC       0.047033
     32 H34          7.8550    -2.7170     5.7360 hc         1 4YC       0.047033
     33 H37          8.4910     1.5000     5.6630 hc         1 4YC       0.047033
     34 H36          9.8600     0.4600     5.2450 hc         1 4YC       0.047033
     35 H38          9.2330     0.4750     6.8990 hc         1 4YC       0.047033
     36 H39          7.0960    -0.4030     8.2660 ha         1 4YC       0.152000
     37 H40          4.7410    -0.1120     8.9340 ha         1 4YC       0.160000
     38 H44          3.8470     2.0730    -1.2280 hx         1 4YC       0.114700
     39 H45          3.8390     0.3010    -1.2130 hx         1 4YC       0.114700
     40 H32          8.1970     0.2650     3.5230 h1         1 4YC       0.072700
     41 H31          7.9300    -1.5210     3.5520 h1         1 4YC       0.072700
     42 H41          3.5930     0.0640     4.8260 ha         1 4YC       0.132000
     43 H43          5.0970     1.1800     0.7160 h1         1 4YC       0.087700
     44 H42          3.6710     2.0990     1.2310 h1         1 4YC       0.087700
     45 H47          1.6770     1.2040    -1.6320 hn         1 4YC       0.446800
     46 H46          1.6960     2.0160    -0.2110 hn         1 4YC       0.446800
     47 Cl1          2.3810     0.2890     7.3870 cl         1 4YC      -0.094400
@<TRIPOS>BOND
     1    11    12 ar
     2    11    10 ar
     3     8     7 1
     4    12    13 ar
     5     9     7 1
     6    10     7 1
     7    10    14 ar
     8     7    18 1
     9    13    47 1
    10    13    19 ar
    11    14    19 ar
    12    14    17 1
    13    18    17 1
    14    17     6 1
    15     6    16 2
    16     6     5 1
    17     5     4 1
    18     4     3 1
    19     4    20 1
    20     3     2 1
    21    20    15 1
    22     2     1 1
    23     2    21 1
    24    15    21 1
    25     1    22 1
    26     1    23 1
    27     1    24 1
    28     2    25 1
    29     3    26 1
    30     3    27 1
    31     5    28 1
    32     5    29 1
    33     8    30 1
    34     8    31 1
    35     8    32 1
    36     9    33 1
    37     9    34 1
    38     9    35 1
    39    11    36 1
    40    12    37 1
    41    15    38 1
    42    15    39 1
    43    18    40 1
    44    18    41 1
    45    19    42 1
    46    20    43 1
    47    20    44 1
    48    21    45 1
    49    21    46 1
@<TRIPOS>SUBSTRUCTURE
     1 4YC         1 TEMP              0 ****  ****    0 ROOT
