@<TRIPOS>MOLECULE
molecule
   37    38     1     0     0
SMALL
bcc


@<TRIPOS>ATOM
      1 C1           0.0000     0.0000     0.0000 c3         1 4YD      -0.123100
      2 C2           1.5310     0.0000     0.0000 c3         1 4YD       0.108500
      3 C3           2.0410     0.0000     1.4430 c3         1 4YD       0.142800
      4 N4           3.5110     0.0200     1.4390 n3         1 4YD      -0.708600
      5 C5           4.0410    -0.0370     2.8080 c3         1 4YD       0.089800
      6 C6           5.5300    -0.2620     2.7600 c          1 4YD       0.676100
      7 C10          6.8700     0.2150     6.1470 c3         1 4YD      -0.094400
      8 C11          8.0480    -0.5660     5.5050 c3         1 4YD      -0.094400
      9 C12          7.6860    -0.5660     4.0050 c3         1 4YD       0.094500
     10 C13          4.0160     1.2020     0.7270 c3         1 4YD       0.133800
     11 C14          3.4890     1.1920    -0.7090 c3         1 4YD       0.102800
     12 O7           6.0940    -0.3650     1.6930 o          1 4YD      -0.604100
     13 N8           6.2350    -0.3490     3.9060 n          1 4YD      -0.487800
     14 C9           5.6790    -0.2410     5.2680 c3         1 4YD       0.094500
     15 N15          2.0200     1.1990    -0.6930 ny         1 4YD      -0.735000
     16 H16         -0.3610     0.8660     0.5410 hc         1 4YD       0.074700
     17 H18         -0.3610    -0.9020     0.4800 hc         1 4YD       0.074700
     18 H17         -0.3610     0.0350    -1.0210 hc         1 4YD       0.074700
     19 H19          1.8960    -0.8830    -0.5100 hx         1 4YD       0.128700
     20 H20          1.6700     0.8790     1.9560 h1         1 4YD       0.071700
     21 H21          1.6940    -0.8930     1.9470 h1         1 4YD       0.071700
     22 H23          3.5700    -0.8520     3.3440 h1         1 4YD       0.067700
     23 H22          3.8330     0.8970     3.3150 h1         1 4YD       0.067700
     24 H26          6.7260    -0.0850     7.1780 hc         1 4YD       0.065450
     25 H28          8.0870    -1.5790     5.8870 hc         1 4YD       0.065450
     26 H29          8.9850    -0.0490     5.6710 hc         1 4YD       0.065450
     27 H30          7.9450    -1.5210     3.5640 h1         1 4YD       0.053450
     28 H31          8.2120     0.2340     3.5000 h1         1 4YD       0.053450
     29 H33          5.0990     1.1790     0.7130 h1         1 4YD       0.088700
     30 H32          3.6750     2.0990     1.2300 h1         1 4YD       0.088700
     31 H34          3.8460     2.0730    -1.2300 hx         1 4YD       0.114700
     32 H35          3.8380     0.3000    -1.2150 hx         1 4YD       0.114700
     33 H25          5.3140    -1.2050     5.6010 h1         1 4YD       0.053450
     34 H24          4.8890     0.4990     5.2930 h1         1 4YD       0.053450
     35 H37          1.6780     1.2030    -1.6330 hn         1 4YD       0.445800
     36 H36          1.6980     2.0160    -0.2120 hn         1 4YD       0.445800
     37 H27          7.0250     1.2840     6.0630 hc         1 4YD       0.065450
@<TRIPOS>BOND
     1     7     8 1   
     2     7    14 1   
     3     8     9 1   
     4    14    13 1   
     5     9    13 1   
     6    13     6 1   
     7     6    12 2   
     8     6     5 1   
     9     5     4 1   
    10     4     3 1   
    11     4    10 1   
    12     3     2 1   
    13    10    11 1   
    14     2     1 1   
    15     2    15 1   
    16    11    15 1   
    17     1    16 1   
    18     1    17 1   
    19     1    18 1   
    20     2    19 1   
    21     3    20 1   
    22     3    21 1   
    23     5    22 1   
    24     5    23 1   
    25     7    37 1   
    26     7    24 1   
    27     8    25 1   
    28     8    26 1   
    29     9    27 1   
    30     9    28 1   
    31    10    29 1   
    32    10    30 1   
    33    11    31 1   
    34    11    32 1   
    35    14    33 1   
    36    14    34 1   
    37    15    35 1   
    38    15    36 1   
@<TRIPOS>SUBSTRUCTURE
     1 4YD         1 TEMP              0 ****  ****    0 ROOT
