@<TRIPOS>MOLECULE
4YE
   41    43     1     0     0
SMALL
bcc


@<TRIPOS>ATOM
      1 C1           0.0000     0.0000     0.0000 c3         1 4YE      -0.004100
      2 C2           1.5290     0.0000     0.0000 c3         1 4YE      -0.055500
      3 C3           2.0400     0.0000     1.4440 c3         1 4YE       0.139800
      4 N4           3.5090     0.0200     1.4400 n3         1 4YE      -0.510600
      5 C5           4.0390    -0.0370     2.8100 c3         1 4YE       0.067800
      6 C6           5.5280    -0.2620     2.7630 c          1 4YE       0.576100
      7 C10          7.9980    -0.5880     5.4960 c3         1 4YE       0.036900
      8 C11          6.6620    -0.3760     6.1720 ca         1 4YE      -0.121300
      9 C12          6.3250    -0.3050     7.5100 ca         1 4YE      -0.039000
     10 C13          5.0100    -0.1010     7.8850 ca         1 4YE      -0.101000
     11 C14          4.0320     0.0290     6.9170 ca         1 4YE      -0.066000
     12 C15          4.3630    -0.0420     5.5810 ca         1 4YE      -0.164000
     13 C16          5.6890    -0.2460     5.1930 ca         1 4YE      -0.111400
     14 O7           6.0930    -0.3650     1.6950 o          1 4YE      -0.639100
     15 N8           6.2320    -0.3480     3.9090 n          1 4YE       0.048000
     16 C9           7.6790    -0.5640     3.9920 c3         1 4YE       0.040000
     17 C17          4.0150     1.2030     0.7300 c3         1 4YE       0.120800
     18 C18          3.4880     1.1930    -0.7080 c3         1 4YE      -0.022200
     19 N19          2.0200     1.2000    -0.6920 ny         1 4YE       0.031000
     20 H20         -0.3610     0.8660     0.5410 hc         1 4YE       0.036367
     21 H22         -0.3610    -0.9020     0.4800 hc         1 4YE       0.036367
     22 H21         -0.3610     0.0350    -1.0210 hc         1 4YE       0.036367
     23 H23          1.8950    -0.8830    -0.5100 hx         1 4YE       0.102700
     24 H24          1.6690     0.8790     1.9570 h1         1 4YE       0.043200
     25 H25          1.6930    -0.8930     1.9480 h1         1 4YE       0.043200
     26 H27          3.5670    -0.8530     3.3450 h1         1 4YE       0.051200
     27 H26          3.8300     0.8970     3.3170 h1         1 4YE       0.051200
     28 H31          8.6650     0.2300     5.7400 hc         1 4YE       0.039700
     29 H32          7.0940    -0.4070     8.2670 ha         1 4YE       0.114000
     30 H33          4.7480    -0.0450     8.9340 ha         1 4YE       0.117000
     31 H34          3.0010     0.1890     7.2100 ha         1 4YE       0.107000
     32 H35          3.5910     0.0610     4.8280 ha         1 4YE       0.108000
     33 H28          8.2070     0.2500     3.5100 h1         1 4YE       0.036200
     34 H29          7.9430    -1.5120     3.5390 h1         1 4YE       0.036200
     35 H37          3.6720     2.0990     1.2330 h1         1 4YE       0.061200
     36 H36          5.0980     1.1810     0.7170 h1         1 4YE       0.061200
     37 H38          3.8380     0.3010    -1.2120 hx         1 4YE       0.086700
     38 H39          3.8460     2.0730    -1.2280 hx         1 4YE       0.086700
     39 H41          1.6970     2.0160    -0.2110 hn         1 4YE       0.238800
     40 H40          1.6780     1.2040    -1.6330 hn         1 4YE       0.238800
     41 H30          8.3960    -1.5570     5.7690 hc         1 4YE       0.039700
@<TRIPOS>BOND
     1     1     2 1   
     2     1    20 1   
     3     1    21 1   
     4     1    22 1   
     5     2     3 1   
     6     2    19 1   
     7     2    23 1   
     8     3     4 1   
     9     3    24 1   
    10     3    25 1   
    11     4     5 1   
    12     4    17 1   
    13     5     6 1   
    14     5    26 1   
    15     5    27 1   
    16     6    14 2   
    17     6    15 1   
    18     7     8 1   
    19     7    16 1   
    20     7    28 1   
    21     7    41 1   
    22     8     9 ar  
    23     8    13 ar  
    24     9    10 ar  
    25     9    29 1   
    26    10    11 ar  
    27    10    30 1   
    28    11    12 ar  
    29    11    31 1   
    30    12    13 ar  
    31    12    32 1   
    32    13    15 1   
    33    15    16 1   
    34    16    33 1   
    35    16    34 1   
    36    17    18 1   
    37    17    35 1   
    38    17    36 1   
    39    18    19 1   
    40    18    37 1   
    41    18    38 1   
    42    19    39 1   
    43    19    40 1   
@<TRIPOS>SUBSTRUCTURE
     1 4YE         1 TEMP              0 ****  ****    0 ROOT
