@<TRIPOS>MOLECULE
molecule
   40    42     1     0     0
SMALL
bcc


@<TRIPOS>ATOM
      1 C1           0.0000     0.0000     0.0000 c3         1 4YF      -0.123100
      2 C2           1.5300     0.0000     0.0000 c3         1 4YF       0.108500
      3 C3           2.0400     0.0000     1.4420 c3         1 4YF       0.142800
      4 N4           3.5100     0.0190     1.4390 n3         1 4YF      -0.712600
      5 C5           4.0400    -0.0380     2.8080 c3         1 4YF       0.083800
      6 C6           5.5300    -0.2630     2.7600 c          1 4YF       0.676100
      7 C10          8.0040    -0.5910     5.4910 c3         1 4YF      -0.040100
      8 C11          6.6700    -0.3780     6.1660 ca         1 4YF      -0.254600
      9 C12          6.3140    -0.3010     7.4960 ca         1 4YF       0.493200
     10 C14          4.0980     0.0250     6.9480 ca         1 4YF       0.552300
     11 C16          4.3760    -0.0410     5.5980 ca         1 4YF      -0.305300
     12 C19          3.4880     1.1920    -0.7090 c3         1 4YF       0.102800
     13 O7           6.0940    -0.3660     1.6920 o          1 4YF      -0.577100
     14 N8           6.2350    -0.3500     3.9050 n          1 4YF      -0.362000
     15 C9           7.6830    -0.5680     3.9870 c3         1 4YF       0.106000
     16 N13          5.0560    -0.1040     7.8470 nb         1 4YF      -0.683000
     17 C17          5.6960    -0.2470     5.1840 ca         1 4YF       0.079600
     18 C18          4.0150     1.2020     0.7270 c3         1 4YF       0.131800
     19 N20          2.0200     1.2000    -0.6930 ny         1 4YF      -0.735000
     20 H21         -0.3610     0.8660     0.5410 hc         1 4YF       0.076033
     21 H23         -0.3610     0.0350    -1.0210 hc         1 4YF       0.076033
     22 H22         -0.3610    -0.9020     0.4800 hc         1 4YF       0.076033
     23 H24          1.8950    -0.8830    -0.5100 hx         1 4YF       0.128700
     24 H25          1.6690     0.8790     1.9550 h1         1 4YF       0.074200
     25 H26          1.6930    -0.8930     1.9470 h1         1 4YF       0.074200
     26 H28          3.5690    -0.8520     3.3440 h1         1 4YF       0.079700
     27 H27          3.8330     0.8970     3.3150 h1         1 4YF       0.079700
     28 H31          8.6710     0.2270     5.7340 hc         1 4YF       0.078700
     29 H32          8.4010    -1.5610     5.7640 hc         1 4YF       0.078700
     30 H33          7.0740    -0.4030     8.2610 h4         1 4YF       0.046100
     31 H34          3.5830     0.0670     4.8680 ha         1 4YF       0.138000
     32 H37          3.8470     2.0710    -1.2300 hx         1 4YF       0.115700
     33 H38          3.8370     0.2990    -1.2140 hx         1 4YF       0.115700
     34 H29          8.2020     0.2600     3.5170 h1         1 4YF       0.073700
     35 H30          7.9320    -1.5260     3.5480 h1         1 4YF       0.073700
     36 H36          5.0980     1.1790     0.7130 h1         1 4YF       0.087700
     37 H35          3.6730     2.0990     1.2300 h1         1 4YF       0.087700
     38 H40          1.6980     2.0160    -0.2120 hn         1 4YF       0.447300
     39 H39          1.6770     1.2040    -1.6330 hn         1 4YF       0.447300
     40 Cl           2.4630     0.2820     7.4720 cl         1 4YF      -0.139000
@<TRIPOS>BOND
     1     9    16 ar
     2     9     8 ar
     3    16    10 ar
     4     8     7 1
     5     8    17 ar
     6     7    15 1
     7    10    40 1
     8    10    11 ar
     9    17    11 ar
    10    17    14 1
    11    15    14 1
    12    14     6 1
    13     6    13 2
    14     6     5 1
    15     5     4 1
    16     4     3 1
    17     4    18 1
    18     3     2 1
    19    18    12 1
    20     2     1 1
    21     2    19 1
    22    12    19 1
    23     1    20 1
    24     1    21 1
    25     1    22 1
    26     2    23 1
    27     3    24 1
    28     3    25 1
    29     5    26 1
    30     5    27 1
    31     7    28 1
    32     7    29 1
    33     9    30 1
    34    11    31 1
    35    12    32 1
    36    12    33 1
    37    15    34 1
    38    15    35 1
    39    18    36 1
    40    18    37 1
    41    19    38 1
    42    19    39 1
@<TRIPOS>SUBSTRUCTURE
     1 4YF         1 TEMP              0 ****  ****    0 ROOT
