@<TRIPOS>MOLECULE
4YF
   40    42     1     0     0
SMALL
bcc


@<TRIPOS>ATOM
      1 C1           0.0000     0.0000     0.0000 c3         1 4YF      -0.004100
      2 C2           1.5300     0.0000     0.0000 c3         1 4YF      -0.054500
      3 C3           2.0400     0.0000     1.4420 c3         1 4YF       0.139800
      4 N4           3.5100     0.0190     1.4390 n3         1 4YF      -0.509600
      5 C5           4.0400    -0.0380     2.8080 c3         1 4YF       0.068800
      6 C6           5.5300    -0.2630     2.7600 c          1 4YF       0.579100
      7 C10          8.0040    -0.5910     5.4910 c3         1 4YF       0.043900
      8 C11          6.6700    -0.3780     6.1660 ca         1 4YF      -0.251600
      9 C12          6.3140    -0.3010     7.4960 ca         1 4YF       0.479200
     10 C14          4.0980     0.0250     6.9480 ca         1 4YF       0.433300
     11 C16          4.3760    -0.0410     5.5980 ca         1 4YF      -0.284300
     12 C19          3.4880     1.1920    -0.7090 c3         1 4YF      -0.021200
     13 O7           6.0940    -0.3660     1.6920 o          1 4YF      -0.624100
     14 N8           6.2350    -0.3500     3.9050 n          1 4YF       0.043000
     15 C9           7.6830    -0.5680     3.9870 c3         1 4YF       0.041000
     16 N13          5.0560    -0.1040     7.8470 nb         1 4YF      -0.561000
     17 C17          5.6960    -0.2470     5.1840 ca         1 4YF      -0.066400
     18 C18          4.0150     1.2020     0.7270 c3         1 4YF       0.119800
     19 N20          2.0200     1.2000    -0.6930 ny         1 4YF       0.031000
     20 H21         -0.3610     0.8660     0.5410 hc         1 4YF       0.037033
     21 H23         -0.3610     0.0350    -1.0210 hc         1 4YF       0.037033
     22 H22         -0.3610    -0.9020     0.4800 hc         1 4YF       0.037033
     23 H24          1.8950    -0.8830    -0.5100 hx         1 4YF       0.102700
     24 H25          1.6690     0.8790     1.9550 h1         1 4YF       0.044200
     25 H26          1.6930    -0.8930     1.9470 h1         1 4YF       0.044200
     26 H28          3.5690    -0.8520     3.3440 h1         1 4YF       0.051700
     27 H27          3.8330     0.8970     3.3150 h1         1 4YF       0.051700
     28 H31          8.6710     0.2270     5.7340 hc         1 4YF       0.042700
     29 H32          8.4010    -1.5610     5.7640 hc         1 4YF       0.042700
     30 H33          7.0740    -0.4030     8.2610 h4         1 4YF      -0.005900
     31 H34          3.5830     0.0670     4.8680 ha         1 4YF       0.127000
     32 H37          3.8470     2.0710    -1.2300 hx         1 4YF       0.087200
     33 H38          3.8370     0.2990    -1.2140 hx         1 4YF       0.087200
     34 H29          8.2020     0.2600     3.5170 h1         1 4YF       0.040200
     35 H30          7.9320    -1.5260     3.5480 h1         1 4YF       0.040200
     36 H36          5.0980     1.1790     0.7130 h1         1 4YF       0.061200
     37 H35          3.6730     2.0990     1.2300 h1         1 4YF       0.061200
     38 H40          1.6980     2.0160    -0.2120 hn         1 4YF       0.239800
     39 H39          1.6770     1.2040    -1.6330 hn         1 4YF       0.239800
     40 Cl           2.4630     0.2820     7.4720 cl         1 4YF      -0.069000
@<TRIPOS>BOND
     1     1     2 1   
     2     1    20 1   
     3     1    21 1   
     4     1    22 1   
     5     2     3 1   
     6     2    19 1   
     7     2    23 1   
     8     3     4 1   
     9     3    24 1   
    10     3    25 1   
    11     4     5 1   
    12     4    18 1   
    13     5     6 1   
    14     5    26 1   
    15     5    27 1   
    16     6    13 2   
    17     6    14 1   
    18     7     8 1   
    19     7    15 1   
    20     7    28 1   
    21     7    29 1   
    22     8     9 ar  
    23     8    17 ar  
    24     9    16 ar  
    25     9    30 1   
    26    10    11 ar  
    27    10    16 ar  
    28    10    40 1   
    29    11    17 ar  
    30    11    31 1   
    31    12    18 1   
    32    12    19 1   
    33    12    32 1   
    34    12    33 1   
    35    14    15 1   
    36    14    17 1   
    37    15    34 1   
    38    15    35 1   
    39    18    36 1   
    40    18    37 1   
    41    19    38 1   
    42    19    39 1   
@<TRIPOS>SUBSTRUCTURE
     1 4YF         1 TEMP              0 ****  ****    0 ROOT
