@<TRIPOS>MOLECULE
4YH
   71    72     1     0     0
SMALL
bcc


@<TRIPOS>ATOM
      1 C30          0.0000     0.0000     0.0000 c3         1 4YH       0.235700
      2 O19          1.4280     0.0000     0.0000 os         1 4YH      -0.291900
      3 C6           2.0460     0.0000     1.2120 ca         1 4YH       0.123100
      4 C5           1.2930    -0.0050     2.3750 ca         1 4YH      -0.171000
      5 C9           3.4360     0.0000     1.2860 ca         1 4YH       0.124100
      6 O23          4.1790     0.0010     0.1470 os         1 4YH      -0.290900
      7 C32          5.6000     0.0000     0.3010 c3         1 4YH       0.241700
      8 C13          4.0600    -0.0000     2.5240 ca         1 4YH      -0.174000
      9 C11          3.3020     0.0000     3.6800 ca         1 4YH      -0.139000
     10 C2           1.9220    -0.0050     3.6060 ca         1 4YH      -0.100300
     11 C1           1.1020    -0.0110     4.8700 c3         1 4YH       0.142400
     12 C15          2.0330    -0.0510     6.0830 c3         1 4YH      -0.064700
     13 C29          2.9060    -1.3060     6.0140 c3         1 4YH      -0.024600
     14 C28          2.9250     1.1920     6.0820 c3         1 4YH      -0.024600
     15 C3           0.2290    -1.1970     4.8820 c1         1 4YH       0.209700
     16 N4          -0.4500    -2.1080     4.8720 n1         1 4YH      -0.390800
     17 C22          0.2430     1.2540     4.9260 c3         1 4YH      -0.053400
     18 C26         -0.5900     1.2480     6.2100 c3         1 4YH      -0.058400
     19 C25         -1.4480     2.5140     6.2660 c3         1 4YH       0.151800
     20 N8          -2.2480     2.5070     7.4990 n3         1 4YH      -0.542600
     21 C27         -1.3890     2.6140     8.6850 c3         1 4YH       0.169100
     22 C16         -3.2530     3.5790     7.4790 c3         1 4YH       0.153800
     23 C21         -4.2210     3.3910     8.6480 c3         1 4YH       0.025900
     24 C17         -5.2520     4.4900     8.6280 ca         1 4YH      -0.088300
     25 C12         -5.0160     5.6710     9.3080 ca         1 4YH      -0.180000
     26 C18         -6.4300     4.3180     7.9250 ca         1 4YH      -0.095000
     27 C14         -7.3790     5.3230     7.9030 ca         1 4YH      -0.176000
     28 C10         -7.1510     6.5070     8.5870 ca         1 4YH       0.115100
     29 O24         -8.0830     7.4960     8.5650 os         1 4YH      -0.292900
     30 C33         -9.2760     7.2480     7.8190 c3         1 4YH       0.240700
     31 C7          -5.9620     6.6820     9.2890 ca         1 4YH       0.120100
     32 O20         -5.7310     7.8440     9.9580 os         1 4YH      -0.292900
     33 C31         -4.4900     7.9540    10.6580 c3         1 4YH       0.234700
     34 H1          -0.3610    -1.0030     0.1930 h1         1 4YH      -0.000633
     35 H2          -0.3610     0.3350    -0.9650 h1         1 4YH      -0.000633
     36 H3          -0.3610     0.6680     0.7720 h1         1 4YH      -0.000633
     37 H4           0.2110    -0.0100     2.3190 ha         1 4YH       0.132000
     38 H5           5.9060    -0.8930     0.8320 h1         1 4YH      -0.002633
     39 H6           5.9030     0.8760     0.8630 h1         1 4YH      -0.002633
     40 H7           6.0690     0.0180    -0.6750 h1         1 4YH      -0.002633
     41 H8           5.1410     0.0000     2.5850 ha         1 4YH       0.123000
     42 H9           3.7890    -0.0000     4.6470 ha         1 4YH       0.156000
     43 H10          1.4550     0.1020     6.9860 hc         1 4YH       0.049700
     44 H11          3.9260    -1.0510     6.2760 hc         1 4YH       0.017700
     45 H12          2.5290    -2.0460     6.7090 hc         1 4YH       0.017700
     46 H13          2.8820    -1.7080     5.0090 hc         1 4YH       0.017700
     47 H14          2.7590     1.7560     6.9920 hc         1 4YH       0.017700
     48 H15          3.9640     0.8910     6.0290 hc         1 4YH       0.017700
     49 H16          2.6830     1.8100     5.2250 hc         1 4YH       0.017700
     50 H17         -0.6560     1.1070     4.3400 hc         1 4YH       0.037700
     51 H18          0.8030     2.0890     4.5230 hc         1 4YH       0.037700
     52 H19         -1.3950     0.5290     6.1150 hc         1 4YH       0.038200
     53 H20          0.0400     0.9760     7.0480 hc         1 4YH       0.038200
     54 H21         -0.8400     3.3470     6.5990 h1         1 4YH       0.010200
     55 H22         -1.8430     2.7260     5.2800 h1         1 4YH       0.010200
     56 H24         -0.8990     3.5800     8.6910 h1         1 4YH       0.005700
     57 H25         -0.6410     1.8310     8.6610 h1         1 4YH       0.005700
     58 H26         -1.9920     2.5100     9.5790 h1         1 4YH       0.005700
     59 H27         -3.8150     3.5290     6.5540 h1         1 4YH       0.011200
     60 H28         -2.7580     4.5400     7.5490 h1         1 4YH       0.011200
     61 H29         -3.6720     3.4290     9.5810 hc         1 4YH       0.026200
     62 H30         -4.7150     2.4310     8.5580 hc         1 4YH       0.026200
     63 H31         -4.0900     5.8060     9.8540 ha         1 4YH       0.126000
     64 H32         -6.6110     3.3940     7.3890 ha         1 4YH       0.109000
     65 H33         -8.3010     5.1860     7.3520 ha         1 4YH       0.122000
     66 H34         -9.0160     6.8940     6.8290 h1         1 4YH      -0.002967
     67 H35         -9.8700     6.4980     8.3260 h1         1 4YH      -0.002967
     68 H36         -9.8470     8.1650     7.7360 h1         1 4YH      -0.002967
     69 H37         -4.5860     8.6880    11.4490 h1         1 4YH      -0.001967
     70 H38         -4.2310     6.9940    11.0860 h1         1 4YH      -0.001967
     71 H39         -3.7140     8.2640     9.9690 h1         1 4YH      -0.001967
@<TRIPOS>BOND
     1     1     2 1   
     2     1    34 1   
     3     1    35 1   
     4     1    36 1   
     5     2     3 1   
     6     3     4 ar  
     7     3     5 ar  
     8     4    10 ar  
     9     4    37 1   
    10     5     6 1   
    11     5     8 ar  
    12     6     7 1   
    13     7    38 1   
    14     7    39 1   
    15     7    40 1   
    16     8     9 ar  
    17     8    41 1   
    18     9    10 ar  
    19     9    42 1   
    20    10    11 1   
    21    11    12 1   
    22    11    15 1   
    23    11    17 1   
    24    12    13 1   
    25    12    14 1   
    26    12    43 1   
    27    13    44 1   
    28    13    45 1   
    29    13    46 1   
    30    14    47 1   
    31    14    48 1   
    32    14    49 1   
    33    15    16 3   
    34    17    18 1   
    35    17    50 1   
    36    17    51 1   
    37    18    19 1   
    38    18    52 1   
    39    18    53 1   
    40    19    20 1   
    41    19    54 1   
    42    19    55 1   
    43    20    21 1   
    44    20    22 1   
    45    21    56 1   
    46    21    57 1   
    47    21    58 1   
    48    22    23 1   
    49    22    59 1   
    50    22    60 1   
    51    23    24 1   
    52    23    61 1   
    53    23    62 1   
    54    24    25 ar  
    55    24    26 ar  
    56    25    31 ar  
    57    25    63 1   
    58    26    27 ar  
    59    26    64 1   
    60    27    28 ar  
    61    27    65 1   
    62    28    29 1   
    63    28    31 ar  
    64    29    30 1   
    65    30    66 1   
    66    30    67 1   
    67    30    68 1   
    68    31    32 1   
    69    32    33 1   
    70    33    69 1   
    71    33    70 1   
    72    33    71 1   
@<TRIPOS>SUBSTRUCTURE
     1 4YH         1 TEMP              0 ****  ****    0 ROOT
