@<TRIPOS>MOLECULE
molecule
   31    34     1     0     0
SMALL
bcc


@<TRIPOS>ATOM
      1 CAT          0.0000     0.0000     0.0000 c3         1 4YK       0.127700
      2 OAS          1.4290     0.0000     0.0000 os         1 4YK      -0.323900
      3 CAQ          2.0450     0.0000     1.2120 ca         1 4YK       0.185100
      4 CAR          3.4280     0.0000     1.2780 ca         1 4YK      -0.217000
      5 CAM          4.0560     0.0000     2.5180 ca         1 4YK       0.119600
      6 NAC          5.4350    -0.0010     2.6120 ns         1 4YK      -0.425100
      7 CAL          6.0520    -0.0010     3.8030 c          1 4YK       0.735700
      8 OAB          7.2700    -0.0010     3.8360 o          1 4YK      -0.640500
      9 CAK          5.3260     0.0000     5.0300 cc         1 4YK      -0.131600
     10 SAA          5.9210     0.0000     6.6830 ss         1 4YK       0.014500
     11 CAJ          4.2990     0.0010     7.3580 ca         1 4YK      -0.016100
     12 CAI          3.8810     0.0020     8.6970 ca         1 4YK      -0.097000
     13 CAH          2.5410     0.0030     9.0020 ca         1 4YK      -0.109000
     14 CAG          1.5930     0.0040     7.9880 ca         1 4YK      -0.133000
     15 CAF          1.9790     0.0030     6.6820 ca         1 4YK      -0.094000
     16 CAE          3.3490     0.0020     6.3410 ca         1 4YK      -0.078800
     17 CAD          3.9520     0.0010     5.0060 cd         1 4YK       0.038600
     18 CAN          3.2790     0.0010     3.6840 ca         1 4YK      -0.126800
     19 CAO          1.8860     0.0020     3.6000 ca         1 4YK      -0.047000
     20 CAP          1.2810     0.0070     2.3750 ca         1 4YK      -0.248000
     21 H1          -0.3610    -0.0050    -1.0210 h1         1 4YK       0.044367
     22 H2          -0.3610     0.8870     0.5060 h1         1 4YK       0.044367
     23 H3          -0.3610    -0.8820     0.5150 h1         1 4YK       0.044367
     24 H4           4.0140     0.1210     0.3740 ha         1 4YK       0.152000
     25 H5           5.9830    -0.0020     1.7750 hn         1 4YK       0.346500
     26 H6           4.6160     0.0020     9.4930 ha         1 4YK       0.139000
     27 H7           2.2230     0.0040    10.0380 ha         1 4YK       0.136000
     28 H9           0.5390     0.0050     8.2370 ha         1 4YK       0.134000
     29 H10          1.2300     0.0030     5.8990 ha         1 4YK       0.137000
     30 H11          1.2860     0.0070     4.5020 ha         1 4YK       0.148000
     31 H12          0.2000     0.0160     2.3080 ha         1 4YK       0.139000
@<TRIPOS>BOND
     1     1     2 1   
     2     2     3 1   
     3     3     4 ar  
     4     3    20 ar  
     5     4     5 ar  
     6     5     6 1   
     7     5    18 ar  
     8     6     7 1   
     9     7     8 2   
    10     7     9 1   
    11     9    10 1   
    12     9    17 2   
    13    10    11 1   
    14    11    12 ar  
    15    11    16 ar  
    16    12    13 ar  
    17    13    14 ar  
    18    14    15 ar  
    19    15    16 ar  
    20    16    17 1   
    21    17    18 1   
    22    18    19 ar  
    23    19    20 ar  
    24     1    21 1   
    25     1    22 1   
    26     1    23 1   
    27     4    24 1   
    28     6    25 1   
    29    12    26 1   
    30    13    27 1   
    31    14    28 1   
    32    15    29 1   
    33    19    30 1   
    34    20    31 1   
@<TRIPOS>SUBSTRUCTURE
     1 4YK         1 TEMP              0 ****  ****    0 ROOT
