@<TRIPOS>MOLECULE
4YL
   53    55     1     0     0
SMALL
bcc


@<TRIPOS>ATOM
      1 C1          0.0460    0.5660    0.9280 c3        1 4YL      0.109700
      2 C3          2.2060   -0.0430    1.6810 c3        1 4YL      0.124400
      3 C5          3.7620   -1.1180    0.0810 c3        1 4YL      0.099800
      4 C7          5.7840    0.0410   -0.7930 c3        1 4YL      0.125500
      5 C8          7.2510   -0.1260   -1.1430 c3        1 4YL     -0.138100
      6 C11         3.8850    2.3870    1.4750 c3        1 4YL      0.126800
      7 C12         4.1530    3.6920    0.7120 c         1 4YL      0.671100
      8 C15         3.7030    6.0960    0.3850 c3        1 4YL      0.085000
      9 C16         2.6620    7.1150    0.9570 c3        1 4YL     -0.003700
     10 C19         2.1100    6.3800    2.1460 ca        1 4YL     -0.231600
     11 C22         1.3970    4.7930    4.2450 ca        1 4YL      0.518300
     12 C24         2.3610    4.2750    3.3410 ca        1 4YL     -0.293300
     13 C25         2.7060    5.0800    2.2550 ca        1 4YL      0.093600
     14 O2          1.4060    0.3400    0.5740 os        1 4YL     -0.428600
     15 C4          3.6780   -0.0660    1.2250 c3        1 4YL      0.198500
     16 N6          5.1460   -1.2860   -0.4460 n4        1 4YL     -0.763000
     17 C9          5.6310    1.0350    0.3860 c3        1 4YL      0.155800
     18 N10         4.2360    1.1920    0.7430 n3        1 4YL     -0.757600
     19 O13         4.8590    3.7420   -0.3140 o         1 4YL     -0.594100
     20 N14         3.6230    4.8730    1.2070 n         1 4YL     -0.365000
     21 C18         1.5850    7.4050   -0.0700 c3        1 4YL     -0.088600
     22 C20         1.1790    6.7830    3.0980 ca        1 4YL      0.456200
     23 N21         0.8100    6.0010    4.1380 nb        1 4YL     -0.654000
     24 CL          0.9640    3.7900    5.5630 cl        1 4YL     -0.138000
     25 H26        -0.0320    1.4040    1.6630 h1        1 4YL      0.051367
     26 H27        -0.4420    0.8430   -0.0410 h1        1 4YL      0.051367
     27 H28        -0.4080   -0.3640    1.3490 h1        1 4YL      0.051367
     28 H29         2.0660    0.6590    2.5450 h1        1 4YL      0.052700
     29 H30         1.9170   -1.0790    2.0120 h1        1 4YL      0.052700
     30 H32         3.0900   -0.7840   -0.7650 hx        1 4YL      0.120200
     31 H33         3.4090   -2.1140    0.4680 hx        1 4YL      0.120200
     32 H36         5.2150    0.4430   -1.6870 hx        1 4YL      0.129700
     33 H38         7.6520    0.8750   -1.4500 hc        1 4YL      0.079367
     34 H37         7.3920   -0.8300   -2.0000 hc        1 4YL      0.079367
     35 H39         7.8480   -0.4870   -0.2700 hc        1 4YL      0.079367
     36 H42         4.4370    2.4510    2.4590 h1        1 4YL      0.078700
     37 H43         2.7710    2.3450    1.6630 h1        1 4YL      0.078700
     38 H45         3.4840    5.8450   -0.6870 h1        1 4YL      0.076200
     39 H44         4.7480    6.5020    0.4560 h1        1 4YL      0.076200
     40 H53         2.8120    3.2970    3.5410 ha        1 4YL      0.146000
     41 H31         4.2720   -0.4540    2.1120 h1        1 4YL      0.041700
     42 H35         5.7260   -1.7490    0.2610 hn        1 4YL      0.444800
     43 H34         5.1250   -1.8750   -1.2840 hn        1 4YL      0.444800
     44 H40         6.2640    0.6800    1.2520 h1        1 4YL      0.089700
     45 H41         6.0430    2.0250    0.0280 h1        1 4YL      0.089700
     46 H48         2.6160    9.1050    1.8180 hc        1 4YL      0.049367
     47 H46         3.8180    8.8870    0.4760 hc        1 4YL      0.049367
     48 H47         4.1550    8.1950    2.1200 hc        1 4YL      0.049367
     49 H50         0.8130    8.0840    0.3670 hc        1 4YL      0.049367
     50 H49         2.0320    7.9020   -0.9650 hc        1 4YL      0.049367
     51 H51         1.0850    6.4620   -0.3970 hc        1 4YL      0.049367
     52 H52         0.6910    7.7750    3.0500 h4        1 4YL      0.046100
     53 C17         3.3560    8.3990    1.3680 c3        1 4YL     -0.088600
@<TRIPOS>BOND
     1    1   14 1   
     2    1   25 1   
     3    1   26 1   
     4    1   27 1   
     5    2   14 1   
     6    2   15 1   
     7    2   28 1   
     8    2   29 1   
     9    3   15 1   
    10    3   16 1   
    11    3   30 1   
    12    3   31 1   
    13    4    5 1   
    14    4   16 1   
    15    4   17 1   
    16    4   32 1   
    17    5   33 1   
    18    5   34 1   
    19    5   35 1   
    20    6    7 1   
    21    6   18 1   
    22    6   36 1   
    23    6   37 1   
    24    7   19 2   
    25    7   20 1   
    26    8    9 1   
    27    8   20 1   
    28    8   38 1   
    29    8   39 1   
    30    9   10 1   
    31    9   21 1   
    32    9   53 1   
    33   10   13 ar  
    34   10   22 ar  
    35   11   12 ar  
    36   11   23 ar  
    37   11   24 1   
    38   12   13 ar  
    39   12   40 1   
    40   13   20 1   
    41   15   18 1   
    42   15   41 1   
    43   16   42 1   
    44   16   43 1   
    45   17   18 1   
    46   17   44 1   
    47   17   45 1   
    48   21   49 1   
    49   21   50 1   
    50   21   51 1   
    51   22   23 ar  
    52   22   52 1   
    53   46   53 1   
    54   47   53 1   
    55   48   53 1   
@<TRIPOS>SUBSTRUCTURE
     1 4YL         1 TEMP              0 ****  ****    0 ROOT
