@<TRIPOS>MOLECULE
4YM
   53    56     1     0     0
SMALL
bcc


@<TRIPOS>ATOM
      1 C01        -0.3530    0.8780    0.6440 c3        1 4YM     -0.106100
      2 C02         0.9970    0.3180    0.2690 c3        1 4YM      0.143400
      3 O03         1.7560    0.2610    1.4980 os        1 4YM     -0.430900
      4 C04         3.0320   -0.2090    1.4060 c         1 4YM      0.658700
      5 O05         3.4370   -0.5610    0.2910 o         1 4YM     -0.570000
      6 C06         3.7500   -0.2180    2.6900 ca        1 4YM     -0.294900
      7 C07         3.1890    0.5780    3.7430 ca        1 4YM      0.486200
      8 N08         3.6880    0.7140    4.9670 nb        1 4YM     -0.641000
      9 C09         4.8250   -0.0120    5.1950 ca        1 4YM      0.443800
     10 N10         5.6030   -0.0960    6.3620 na        1 4YM     -0.086800
     11 N11         6.6290   -0.9280    6.2130 nc        1 4YM     -0.462100
     12 C12         6.6070   -1.4350    4.9490 cd        1 4YM      0.377500
     13 C13         7.5790   -2.4160    4.4850 ca        1 4YM     -0.069900
     14 C14         7.1560   -3.6890    4.0820 ca        1 4YM     -0.077000
     15 C15         8.0910   -4.6390    3.6680 ca        1 4YM     -0.153000
     16 C16         9.4480   -4.3300    3.6450 ca        1 4YM     -0.149000
     17 C17         9.8760   -3.0550    4.0480 ca        1 4YM     -0.038000
     18 C18        11.2610   -2.7370    4.0260 cg        1 4YM      0.195800
     19 N19        12.3950   -2.4760    4.0080 n1        1 4YM     -0.309800
     20 C20         8.9450   -2.1030    4.4860 ca        1 4YM     -0.077000
     21 C21         5.4750   -0.8760    4.2180 ca        1 4YM     -0.310200
     22 C22         4.9310   -0.9510    2.9140 ca        1 4YM      0.260600
     23 N23         5.6330   -1.7520    1.9670 nh        1 4YM     -0.670000
     24 C24         4.9300   -2.9200    1.4540 c3        1 4YM      0.139800
     25 C25         5.9200   -3.8500    0.7460 c3        1 4YM      0.120400
     26 O26         6.7190   -3.1930   -0.2390 os        1 4YM     -0.427600
     27 C27         7.2660   -1.9370    0.1280 c3        1 4YM      0.131100
     28 C28         8.5450   -2.1280    0.9700 c3        1 4YM      0.048800
     29 N29         9.4050   -3.2380    0.4750 n4        1 4YM     -0.832600
     30 C30         6.3000   -1.0190    0.8990 c3        1 4YM      0.149800
     31 H01        -0.9850    0.9360   -0.2740 hc        1 4YM      0.057033
     32 H01A       -0.8580    0.2230    1.3940 hc        1 4YM      0.057033
     33 H01B       -0.2490    1.9000    1.0810 hc        1 4YM      0.057033
     34 H02         0.9240   -0.7190   -0.1500 h1        1 4YM      0.057700
     35 H02A        1.5430    0.9750   -0.4560 h1        1 4YM      0.057700
     36 H07         2.2540    1.1460    3.5470 h4        1 4YM      0.068100
     37 HN10        5.4230    0.3480    7.2380 hn        1 4YM      0.358700
     38 H14         6.0830   -3.9410    4.1040 ha        1 4YM      0.160000
     39 H15         7.7540   -5.6520    3.3940 ha        1 4YM      0.154000
     40 H16        10.1890   -5.0980    3.3710 ha        1 4YM      0.151000
     41 H20         9.2870   -1.1180    4.8460 ha        1 4YM      0.172000
     42 H24         4.1110   -2.6400    0.7290 h1        1 4YM      0.081200
     43 H24A        4.4700   -3.4740    2.3180 h1        1 4YM      0.081200
     44 H25         6.6070   -4.3350    1.4930 h1        1 4YM      0.061200
     45 H25A        5.3650   -4.6300    0.1580 h1        1 4YM      0.061200
     46 H27         7.5190   -1.4570   -0.8620 h1        1 4YM      0.102700
     47 H28         9.1430   -1.1740    0.9620 hx        1 4YM      0.123200
     48 H28A        8.2590   -2.3740    2.0390 hx        1 4YM      0.123200
     49 HN29        8.7980   -3.9790    0.0920 hn        1 4YM      0.463467
     50 HN2A       10.0310   -2.9140   -0.2650 hn        1 4YM      0.463467
     51 H30         5.5690   -0.5960    0.1460 h1        1 4YM      0.089700
     52 H30A        6.8800   -0.1670    1.3510 h1        1 4YM      0.089700
     53 H293        9.9570   -3.6190    1.2530 hn        1 4YM      0.463467
@<TRIPOS>BOND
     1    1    2 1
     2    1   31 1
     3    1   32 1
     4    1   33 1
     5    2    3 1
     6    2   34 1
     7    2   35 1
     8    3    4 1
     9    4    5 2
    10    4    6 1
    11    6    7 ar
    12    6   22 ar
    13    7    8 ar
    14    7   36 1
    15    8    9 ar
    16    9   10 1
    17    9   21 ar
    18   10   11 1
    19   10   37 1
    20   11   12 2
    21   12   13 1
    22   12   21 1
    23   13   14 ar
    24   13   20 ar
    25   14   15 ar
    26   14   38 1
    27   15   16 ar
    28   15   39 1
    29   16   17 ar
    30   16   40 1
    31   17   18 1
    32   17   20 ar
    33   18   19 3
    34   20   41 1
    35   21   22 ar
    36   22   23 1
    37   23   24 1
    38   23   30 1
    39   24   25 1
    40   24   42 1
    41   24   43 1
    42   25   26 1
    43   25   44 1
    44   25   45 1
    45   26   27 1
    46   27   28 1
    47   27   30 1
    48   27   46 1
    49   28   29 1
    50   28   47 1
    51   28   48 1
    52   29   49 1
    53   29   50 1
    54   29   53 1
    55   30   51 1
    56   30   52 1
@<TRIPOS>SUBSTRUCTURE
     1 4YM         1 TEMP              0 ****  ****    0 ROOT
