@<TRIPOS>MOLECULE
4YN
   66    69     1     0     0
SMALL
bcc


@<TRIPOS>ATOM
      1 C1           0.0000     0.0000     0.0000 c3         1 4YN       0.253700
      2 C3           2.0090     0.0000     1.3060 c3         1 4YN       0.140400
      3 C5           3.9820    -1.2070     0.3560 c3         1 4YN      -0.037200
      4 C7           5.8670     0.0330    -0.4610 c3         1 4YN      -0.051500
      5 C8           7.3890     0.0350    -0.6150 c3         1 4YN      -0.004100
      6 C11          3.5160     2.4200     1.2610 c3         1 4YN       0.049800
      7 C12          3.5570     3.6230     0.3540 c          1 4YN       0.578100
      8 C15          3.1740     6.0690     0.0360 c3         1 4YN       0.034000
      9 C16          2.6650     7.1550     0.9990 c3         1 4YN      -0.005700
     10 C19          2.4100     6.4220     2.2940 ca         1 4YN      -0.246600
     11 C22          2.1000     4.7250     4.3940 ca         1 4YN       0.421600
     12 C23          1.9190     3.7650     5.5410 c3         1 4YN      -0.009400
     13 C24          2.9970     4.0230     6.5970 ca         1 4YN      -0.097300
     14 C25          3.4500     5.3130     6.8220 ca         1 4YN      -0.110000
     15 C26          4.4260     5.5480     7.7780 ca         1 4YN      -0.094000
     16 C27          4.9490     4.4930     8.5090 ca         1 4YN      -0.098000
     17 C28          4.4960     3.2030     8.2840 ca         1 4YN      -0.094000
     18 C31          2.7300     5.0830     2.1120 ca         1 4YN      -0.064400
     19 O2           1.4280     0.0000     0.0000 os         1 4YN      -0.405600
     20 C4           3.5350    -0.0010     1.1850 c3         1 4YN       0.134500
     21 N6           5.4440    -1.1950     0.2240 ny         1 4YN       0.035000
     22 C9           5.4350     1.2500     0.3600 c3         1 4YN       0.116800
     23 N10          3.9740     1.2360     0.5230 n3         1 4YN      -0.490600
     24 O13          3.9330     3.5060    -0.7930 o          1 4YN      -0.615100
     25 N14          3.1770     4.8310     0.8190 n          1 4YN       0.041000
     26 C18          1.3310     7.6930     0.4840 c3         1 4YN       0.014400
     27 C20          1.9500     6.8530     3.5200 ca         1 4YN       0.474200
     28 N21          1.8080     6.0060     4.5230 nb         1 4YN      -0.578000
     29 C29          3.5190     2.9680     7.3280 ca         1 4YN      -0.110000
     30 C30          2.5660     4.2190     3.2010 ca         1 4YN      -0.293300
     31 H32         -0.3610     0.7240     0.7210 h1         1 4YN      -0.000300
     32 H33         -0.3610    -0.9860     0.2660 h1         1 4YN      -0.000300
     33 H34         -0.3610     0.2620    -0.9870 h1         1 4YN      -0.000300
     34 H35          1.3130    -0.4360     2.0110 h1         1 4YN       0.034200
     35 H36          2.2330     1.0180     1.6020 h1         1 4YN       0.034200
     36 H39          3.4470    -1.2000    -0.5860 hx         1 4YN       0.093700
     37 H38          3.7370    -2.1120     0.8980 hx         1 4YN       0.093700
     38 H42          5.4010     0.0770    -1.4380 hx         1 4YN       0.110700
     39 H44          7.6920    -0.8110    -1.2200 hc         1 4YN       0.035700
     40 H43          7.8510    -0.0360     0.3620 hc         1 4YN       0.035700
     41 H45          7.7020     0.9530    -1.0960 hc         1 4YN       0.035700
     42 H48          2.5520     2.3730     1.7540 h1         1 4YN       0.060200
     43 H49          4.2990     2.5010     2.0050 h1         1 4YN       0.060200
     44 H51          4.1840     6.3090    -0.2760 h1         1 4YN       0.045200
     45 H50          2.4880     5.9760    -0.7970 h1         1 4YN       0.045200
     46 H60          1.9570     2.7480     5.1710 hc         1 4YN       0.027200
     47 H59          0.9600     3.9430     6.0130 hc         1 4YN       0.027200
     48 H61          3.0420     6.1380     6.2510 ha         1 4YN       0.115500
     49 H62          4.7810     6.5570     7.9540 ha         1 4YN       0.106000
     50 H63          5.7120     4.6770     9.2560 ha         1 4YN       0.107000
     51 H64          4.9040     2.3780     8.8560 ha         1 4YN       0.106000
     52 H37          3.9800    -0.0580     2.1710 h1         1 4YN       0.018700
     53 H41          5.8500    -1.3340     1.1290 hn         1 4YN       0.236800
     54 H40          5.7190    -1.9460    -0.3780 hn         1 4YN       0.236800
     55 H46          5.6510     2.1470    -0.2060 h1         1 4YN       0.059700
     56 H47          6.0030     1.2660     1.2830 h1         1 4YN       0.059700
     57 H54          3.3370     9.0600     1.7290 hc         1 4YN       0.014367
     58 H52          4.6100     7.8390     1.6000 hc         1 4YN       0.014367
     59 H53          3.9820     8.6200     0.1420 hc         1 4YN       0.014367
     60 H56          0.5890     6.9040     0.5100 hc         1 4YN       0.014367
     61 H55          1.0060     8.5140     1.1120 hc         1 4YN       0.014367
     62 H57          1.4510     8.0420    -0.5340 hc         1 4YN       0.014367
     63 H58          1.7010     7.8970     3.6680 h4         1 4YN      -0.007900
     64 H65          3.1650     1.9590     7.1520 ha         1 4YN       0.115500
     65 H66          2.8860     3.1860     3.1390 ha         1 4YN       0.121000
     66 C17          3.7260     8.2480     1.1270 c3         1 4YN       0.014400
@<TRIPOS>BOND
     1     1    19 1   
     2     1    31 1   
     3     1    32 1   
     4     1    33 1   
     5     2    19 1   
     6     2    20 1   
     7     2    34 1   
     8     2    35 1   
     9     3    20 1   
    10     3    21 1   
    11     3    36 1   
    12     3    37 1   
    13     4     5 1   
    14     4    21 1   
    15     4    22 1   
    16     4    38 1   
    17     5    39 1   
    18     5    40 1   
    19     5    41 1   
    20     6     7 1   
    21     6    23 1   
    22     6    42 1   
    23     6    43 1   
    24     7    24 2   
    25     7    25 1   
    26     8     9 1   
    27     8    25 1   
    28     8    44 1   
    29     8    45 1   
    30     9    10 1   
    31     9    26 1   
    32     9    66 1   
    33    10    18 ar  
    34    10    27 ar  
    35    11    12 1   
    36    11    28 ar  
    37    11    30 ar  
    38    12    13 1   
    39    12    46 1   
    40    12    47 1   
    41    13    14 ar  
    42    13    29 ar  
    43    14    15 ar  
    44    14    48 1   
    45    15    16 ar  
    46    15    49 1   
    47    16    17 ar  
    48    16    50 1   
    49    17    29 ar  
    50    17    51 1   
    51    18    25 1   
    52    18    30 ar  
    53    20    23 1   
    54    20    52 1   
    55    21    53 1   
    56    21    54 1   
    57    22    23 1   
    58    22    55 1   
    59    22    56 1   
    60    26    60 1   
    61    26    61 1   
    62    26    62 1   
    63    27    28 ar  
    64    27    63 1   
    65    29    64 1   
    66    30    65 1   
    67    57    66 1   
    68    58    66 1   
    69    59    66 1   
@<TRIPOS>SUBSTRUCTURE
     1 4YN         1 TEMP              0 ****  ****    0 ROOT
