@<TRIPOS>MOLECULE
4YO
   19    20     1     0     0
SMALL
bcc


@<TRIPOS>ATOM
      1 O            0.0000     0.0000     0.0000 o          1 4YO      -0.660500
      2 C            1.2130     0.0000     0.0000 c          1 4YO       0.595500
      3 CA           1.9570     0.0000     1.3110 c3         1 4YO       0.082800
      4 N            3.2500    -0.6770     1.1290 nu         1 4YO      -0.397600
      5 CAL          3.9760    -0.3990    -0.0380 ca         1 4YO      -0.003400
      6 CAE          5.3580    -0.4660    -0.0510 ca         1 4YO      -0.104000
      7 CAJ          6.0470    -0.1830    -1.2180 ca         1 4YO       0.043100
      8 Br1          7.9360    -0.2720    -1.2430 br         1 4YO      -0.124100
      9 CAC          5.3570     0.1660    -2.3660 ca         1 4YO      -0.084000
     10 CAD          3.9770     0.2330    -2.3580 ca         1 4YO      -0.104000
     11 CAK          3.2790    -0.0520    -1.1960 ca         1 4YO      -0.119400
     12 NAH          1.8790    -0.0060    -1.1700 ns         1 4YO      -0.010100
     13 H1           1.3760    -0.5470     2.0440 h1         1 4YO       0.040700
     14 H2           2.1370     1.0250     1.6120 h1         1 4YO       0.040700
     15 H3           3.8290    -0.5120     1.9290 hn         1 4YO       0.263800
     16 H4           5.8920    -0.8320     0.8170 ha         1 4YO       0.126000
     17 H5           5.9020     0.3870    -3.2760 ha         1 4YO       0.119000
     18 H6           3.4420     0.5070    -3.2590 ha         1 4YO       0.114000
     19 H7           1.3680     0.0220    -2.0300 hn         1 4YO       0.182500
@<TRIPOS>BOND
     1     1     2 2   
     2     2     3 1   
     3     2    12 1   
     4     3     4 1   
     5     3    13 1   
     6     3    14 1   
     7     4     5 1   
     8     4    15 1   
     9     5     6 ar  
    10     5    11 ar  
    11     6     7 ar  
    12     6    16 1   
    13     7     8 1   
    14     7     9 ar  
    15     9    10 ar  
    16     9    17 1   
    17    10    11 ar  
    18    10    18 1   
    19    11    12 1   
    20    12    19 1   
@<TRIPOS>SUBSTRUCTURE
     1 4YO         1 TEMP              0 ****  ****    0 ROOT
