@<TRIPOS>MOLECULE
molecule
   48    48     1     0     0
SMALL
bcc


@<TRIPOS>ATOM
      1 CAB          0.0000     0.0000     0.0000 c3         1 4YP      -0.053400
      2 CAO          1.5070     0.0000     0.0000 c2         1 4YP      -0.119400
      3 CAC          2.2610     0.0000     1.3040 c3         1 4YP      -0.053400
      4 CAI          2.1620    -0.0010    -1.1360 c2         1 4YP      -0.193200
      5 CAK          3.6630     0.1190    -1.1380 c3         1 4YP      -0.041200
      6 CAM          4.2670    -1.0570    -1.9090 c3         1 4YP      -0.044200
      7 CAP          5.7700    -0.9370    -1.9120 c2         1 4YP      -0.072400
      8 CAD          6.4560    -0.0900    -2.9530 c3         1 4YP      -0.068900
      9 CAJ          6.4790    -1.5690    -1.0110 c2         1 4YP      -0.230200
     10 CAL          7.9840    -1.5430    -1.0810 c3         1 4YP      -0.002000
     11 CAS          8.5400    -1.0500     0.2300 cc         1 4YP      -0.110400
     12 CAV          8.6670     0.4030     0.4770 c          1 4YP       0.523500
     13 OAH          8.3220     1.1970    -0.3770 o          1 4YP      -0.411100
     14 CAQ          8.9130    -1.9280     1.1690 cd         1 4YP      -0.133400
     15 CAE          8.7750    -3.4060     0.9130 c3         1 4YP      -0.049900
     16 CAU          9.4590    -1.4490     2.4570 c          1 4YP       0.582500
     17 OAG          9.7970    -2.2470     3.3080 o          1 4YP      -0.484100
     18 CAR          9.5930     0.0030     2.7080 cc         1 4YP      -0.231200
     19 NAF         10.1060     0.4560     3.9160 nz         1 4YP      -0.644400
     20 CAT          9.2090     0.8890     1.7560 cd         1 4YP       0.177900
     21 OAN          9.3260     2.2240     1.9820 os         1 4YP      -0.357900
     22 CAA          8.1130     2.9750     2.0700 c3         1 4YP       0.131700
     23 H1          -0.3610     0.0270     1.0210 hc         1 4YP       0.042200
     24 H2          -0.3610    -0.8980    -0.4870 hc         1 4YP       0.042200
     25 H3          -0.3610     0.8710    -0.5340 hc         1 4YP       0.042200
     26 H4           1.5590    -0.0480     2.1280 hc         1 4YP       0.042200
     27 H5           2.9190    -0.8600     1.3410 hc         1 4YP       0.042200
     28 H6           2.8480     0.9070     1.3820 hc         1 4YP       0.042200
     29 H7           1.6190    -0.0020    -2.0730 ha         1 4YP       0.134000
     30 H8           3.9510     1.0480    -1.6140 hc         1 4YP       0.045700
     31 H9           4.0280     0.1070    -0.1180 hc         1 4YP       0.045700
     32 H10          3.9800    -1.9870    -1.4330 hc         1 4YP       0.059700
     33 H11          3.9020    -1.0460    -2.9290 hc         1 4YP       0.059700
     34 H12          7.2170    -0.6770    -3.4520 hc         1 4YP       0.052367
     35 H13          5.7280     0.2490    -3.6800 hc         1 4YP       0.052367
     36 H14          6.9160     0.7670    -2.4750 hc         1 4YP       0.052367
     37 H15          5.9840    -2.1780    -0.2640 ha         1 4YP       0.131000
     38 H16          8.2970    -0.8800    -1.8780 hc         1 4YP       0.081200
     39 H17          8.3530    -2.5430    -1.2770 hc         1 4YP       0.081200
     40 H18          7.7340    -3.6480     0.7390 hc         1 4YP       0.074033
     41 H19          9.1350    -3.9560     1.7740 hc         1 4YP       0.074033
     42 H20          9.3590    -3.6780     0.0420 hc         1 4YP       0.074033
     43 H21          9.3520     0.7130     4.5220 hn         1 4YP       0.466467
     44 H22         10.6890     1.2530     3.7530 hn         1 4YP       0.466467
     45 H23          8.2200     3.7480     2.8210 h1         1 4YP       0.072033
     46 H24          7.2990     2.3150     2.3440 h1         1 4YP       0.072033
     47 H25          7.9000     3.4310     1.1100 h1         1 4YP       0.072033
     48 HAF3        10.6380    -0.2730     4.3470 hn         1 4YP       0.466467
@<TRIPOS>BOND
     1    15    14 1
     2    17    16 2
     3     8     7 1
     4    14    16 1
     5    14    11 2
     6    10    11 1
     7    10     9 1
     8    16    18 1
     9    11    12 1
    10     7     9 2
    11     7     6 1
    12     3     2 1
    13     5     6 1
    14     5     4 1
    15    18    19 1
    16    18    20 2
    17    12    20 1
    18    12    13 2
    19    20    21 1
    20     2     4 2
    21     2     1 1
    22    21    22 1
    23     1    23 1
    24     1    24 1
    25     1    25 1
    26     3    26 1
    27     3    27 1
    28     3    28 1
    29     4    29 1
    30     5    30 1
    31     5    31 1
    32     6    32 1
    33     6    33 1
    34     8    34 1
    35     8    35 1
    36     8    36 1
    37     9    37 1
    38    10    38 1
    39    10    39 1
    40    15    40 1
    41    15    41 1
    42    15    42 1
    43    19    43 1
    44    19    44 1
    45    22    45 1
    46    22    46 1
    47    22    47 1
    48    48    19 1
@<TRIPOS>SUBSTRUCTURE
     1 4YP         1 TEMP              0 ****  ****    0 ROOT
