@<TRIPOS>MOLECULE
4YP
   48    50     1     0     0
SMALL
bcc


@<TRIPOS>ATOM
      1 CAB          0.0000     0.0000     0.0000 c3         1 4YP      -0.112000
      2 CAO          1.5070     0.0000     0.0000 c2         1 4YP       0.058000
      3 CAC          2.2610     0.0000     1.3040 c3         1 4YP      -0.112000
      4 CAI          2.1620    -0.0010    -1.1360 c2         1 4YP      -0.494000
      5 CAK          3.6630     0.1190    -1.1380 DU         1 4YP      -0.139000
      6 CAM          4.2670    -1.0570    -1.9090 c3         1 4YP      -0.098000
      7 CAP          5.7700    -0.9370    -1.9120 c2         1 4YP       0.109000
      8 CAD          6.4560    -0.0900    -2.9530 c3         1 4YP      -0.160000
      9 CAJ          6.4790    -1.5690    -1.0110 c2         1 4YP      -0.524000
     10 CAL          7.9840    -1.5430    -1.0810 DU         1 4YP      -0.086000
     11 CAS          8.5400    -1.0500     0.2300 ca         1 4YP      -0.168000
     12 CAV          8.6670     0.4030     0.4770 ca         1 4YP       0.285000
     13 OAH          8.3220     1.1970    -0.3770 o          1 4YP      -0.220000
     14 CAQ          8.9130    -1.9280     1.1690 ca         1 4YP      -0.051000
     15 CAE          8.7750    -3.4060     0.9130 c3         1 4YP      -0.081000
     16 CAU          9.4590    -1.4490     2.4570 ca         1 4YP       0.367000
     17 OAG          9.7970    -2.2470     3.3080 o          1 4YP      -0.260000
     18 CAR          9.5930     0.0030     2.7080 ca         1 4YP      -0.564000
     19 NAF         10.1060     0.4560     3.9160 nz         1 4YP       1.014000
     20 CAT          9.2090     0.8890     1.7560 ca         1 4YP       0.231000
     21 OAN          9.3260     2.2240     1.9820 os         1 4YP      -0.233000
     22 CAA          8.1130     2.9750     2.0700 c3         1 4YP       0.084000
     23 H1          -0.3610    -0.9070     0.4690 hc         1 4YP       0.060167
     24 H2          -0.3610     0.8600     0.5510 hc         1 4YP       0.060167
     25 H3          -0.3610     0.0470    -1.0200 hc         1 4YP       0.060167
     26 H4           2.8940    -0.8780     1.3560 hc         1 4YP       0.060167
     27 H5           2.8740     0.8910     1.3670 hc         1 4YP       0.060167
     28 H6           1.5580    -0.0140     2.1280 hc         1 4YP       0.060167
     29 H7           2.8070    -0.8570    -0.9740 DU         1 4YP       0.312000
     30 H8           4.0280     0.1070    -0.1180 ha         1 4YP       0.066000
     31 H9           3.9510     1.0480    -1.6140 ha         1 4YP       0.066000
     32 H10          3.9800    -1.9870    -1.4330 hc         1 4YP       0.091500
     33 H11          3.9020    -1.0460    -2.9290 hc         1 4YP       0.091500
     34 H12          6.9020     0.7750    -2.4780 hc         1 4YP       0.074000
     35 H13          7.2280    -0.6720    -3.4410 hc         1 4YP       0.074000
     36 H14          5.7310     0.2360    -3.6880 hc         1 4YP       0.074000
     37 H15          7.0590    -0.7400    -0.6240 DU         1 4YP       0.288000
     38 H16          8.3530    -2.5430    -1.2770 ha         1 4YP       0.098500
     39 H17          8.2970    -0.8800    -1.8780 ha         1 4YP       0.098500
     40 H18          9.4050    -3.6880     0.0780 hc         1 4YP       0.085000
     41 H19          9.0800    -3.9550     1.7960 hc         1 4YP       0.085000
     42 H20          7.7430    -3.6390     0.6820 hc         1 4YP       0.085000
     43 H21         10.6440    -0.2710     4.3440 hn         1 4YP       0.007667
     44 H22          9.3520     0.7140     4.5220 hn         1 4YP       0.007667
     45 H23          8.2260     3.7590     2.8080 h1         1 4YP       0.060667
     46 H24          7.8910     3.4160     1.1060 h1         1 4YP       0.060667
     47 H25          7.3020     2.3180     2.3620 h1         1 4YP       0.060667
     48 HAF3        10.6660     1.2700     3.7570 hn         1 4YP       0.007667
@<TRIPOS>BOND
     1     1     2 1   
     2     1    23 1   
     3     1    24 1   
     4     1    25 1   
     5     2     3 1   
     6     2     4 1   
     7     3    26 1   
     8     3    27 1   
     9     3    28 1   
    10     4     5 1   
    11     4    29 1   
    12     5     6 1   
    13     5    29 1   
    14     5    30 1   
    15     5    31 1   
    16     6     7 1   
    17     6    32 1   
    18     6    33 1   
    19     7     8 1   
    20     7     9 1   
    21     8    34 1   
    22     8    35 1   
    23     8    36 1   
    24     9    10 1   
    25     9    37 1   
    26    10    11 1   
    27    10    37 1   
    28    10    38 1   
    29    10    39 1   
    30    11    12 1   
    31    11    14 1   
    32    12    13 1   
    33    12    20 1   
    34    14    15 1   
    35    14    16 1   
    36    15    40 1   
    37    15    41 1   
    38    15    42 1   
    39    16    17 1   
    40    16    18 1   
    41    18    19 1   
    42    18    20 1   
    43    19    43 1   
    44    19    44 1   
    45    19    48 1   
    46    20    21 1   
    47    21    22 1   
    48    22    45 1   
    49    22    46 1   
    50    22    47 1   
@<TRIPOS>SUBSTRUCTURE
     1 4YP         1 TEMP              0 ****  ****    0 ROOT
