@<TRIPOS>MOLECULE
4YQ
   52    56     1     0     0
SMALL
bcc


@<TRIPOS>ATOM
      1 O14          0.0000     0.0000     0.0000 o          1 4YQ      -0.652100
      2 C13          1.2170     0.0000     0.0000 c          1 4YQ       0.655700
      3 C5           1.9490     0.0000     1.2670 cc         1 4YQ      -0.232000
      4 S6           3.7000     0.0020     1.4550 ss         1 4YQ      -0.352300
      5 C7           3.5310    -0.0000     3.1560 cc         1 4YQ       0.702700
      6 O9           4.5600    -0.0000     4.0330 os         1 4YQ      -0.360100
      7 C10          5.8800     0.0010     3.4850 c3         1 4YQ       0.187400
      8 C11          6.9040     0.0010     4.6220 c3         1 4YQ       0.225400
      9 O12          6.8010    -1.2200     5.3560 oh         1 4YQ      -0.582800
     10 C4           1.3960     0.0040     2.5170 cd         1 4YQ       0.494600
     11 N8           2.2730    -0.0020     3.4880 nd         1 4YQ      -0.606000
     12 C3          -0.0920     0.0100     2.7560 cx         1 4YQ      -0.164000
     13 C2          -0.6770     1.1890     3.5360 cx         1 4YQ      -0.068900
     14 C1          -0.5780    -0.1890     4.1930 cx         1 4YQ      -0.068900
     15 N15          1.8910    -0.0040    -1.1670 ns         1 4YQ      -0.196900
     16 C16          1.1590    -0.0100    -2.4360 c3         1 4YQ       0.029700
     17 C17          2.0360    -0.6230    -3.5290 c3         1 4YQ      -0.050200
     18 C18          3.3130     0.2040    -3.6810 c3         1 4YQ      -0.023900
     19 C21          0.7930     1.4260    -2.8200 c3         1 4YQ      -0.050200
     20 C20          2.0720     2.2530    -2.9730 c3         1 4YQ      -0.023900
     21 C22          0.0280     1.4190    -4.1460 c3         1 4YQ      -0.045400
     22 C23          0.9050     0.8060    -5.2380 c3         1 4YQ       0.171800
     23 C25          1.2700    -0.6300    -4.8540 c3         1 4YQ      -0.045400
     24 O26          0.1910     0.8000    -6.4760 oh         1 4YQ      -0.585800
     25 C24          2.1840     1.6330    -5.3910 c3         1 4YQ      -0.013400
     26 C19          2.9490     1.6390    -4.0660 c3         1 4YQ      -0.038700
     27 H15          2.8910    -0.0600    -1.1670 hn         1 4YQ       0.186500
     28 H101         6.0180    -0.8820     2.8740 h1         1 4YQ       0.016700
     29 H102         6.0170     0.8870     2.8760 h1         1 4YQ       0.016700
     30 H111         6.7100     0.8360     5.2830 h1         1 4YQ      -0.002300
     31 H112         7.9010     0.0910     4.2100 h1         1 4YQ      -0.002300
     32 H12          7.4950    -1.2640     5.9930 ho         1 4YQ       0.394000
     33 H3          -0.7460    -0.4000     1.9950 hc         1 4YQ       0.103700
     34 H21C         0.0400     1.9240     3.8800 hc         1 4YQ       0.049200
     35 H22C        -1.6740     1.4950     3.2420 hc         1 4YQ       0.049200
     36 H11C        -1.5130    -0.7250     4.3010 hc         1 4YQ       0.049200
     37 H12C         0.2010    -0.2960     4.9390 hc         1 4YQ       0.049200
     38 H16          0.2540    -0.5960    -2.3270 h1         1 4YQ       0.058700
     39 H17          2.2940    -1.6400    -3.2570 hc         1 4YQ       0.039200
     40 H21          0.1720     1.8600    -2.0460 hc         1 4YQ       0.039200
     41 H181         3.8550     0.2090    -2.7430 hc         1 4YQ       0.018700
     42 H182         3.9350    -0.2300    -4.4540 hc         1 4YQ       0.018700
     43 H251         0.3660    -1.2160    -4.7450 hc         1 4YQ       0.024950
     44 H252         1.8920    -1.0640    -5.6280 hc         1 4YQ       0.024950
     45 H19          3.8540     2.2250    -4.1750 hc         1 4YQ       0.027700
     46 H201         2.6140     2.2580    -2.0350 hc         1 4YQ       0.018700
     47 H202         1.8140     3.2690    -3.2460 hc         1 4YQ       0.018700
     48 H221        -0.8770     0.8330    -4.0380 hc         1 4YQ       0.024950
     49 H222        -0.2310     2.4350    -4.4180 hc         1 4YQ       0.024950
     50 H26         -0.5980     0.2940    -6.3810 ho         1 4YQ       0.393000
     51 H241         1.9260     2.6490    -5.6640 hc         1 4YQ       0.026200
     52 H242         2.8050     1.1980    -6.1640 hc         1 4YQ       0.026200
@<TRIPOS>BOND
     1     1     2 2   
     2     2     3 1   
     3     2    15 1   
     4     3     4 1   
     5     3    10 2   
     6     4     5 1   
     7     5     6 1   
     8     5    11 2   
     9     6     7 1   
    10     7     8 1   
    11     7    28 1   
    12     7    29 1   
    13     8     9 1   
    14     8    30 1   
    15     8    31 1   
    16     9    32 1   
    17    10    11 1   
    18    10    12 1   
    19    12    13 1   
    20    12    14 1   
    21    12    33 1   
    22    13    14 1   
    23    13    34 1   
    24    13    35 1   
    25    14    36 1   
    26    14    37 1   
    27    15    16 1   
    28    15    27 1   
    29    16    17 1   
    30    16    19 1   
    31    16    38 1   
    32    17    18 1   
    33    17    23 1   
    34    17    39 1   
    35    18    26 1   
    36    18    41 1   
    37    18    42 1   
    38    19    20 1   
    39    19    21 1   
    40    19    40 1   
    41    20    26 1   
    42    20    46 1   
    43    20    47 1   
    44    21    22 1   
    45    21    48 1   
    46    21    49 1   
    47    22    23 1   
    48    22    24 1   
    49    22    25 1   
    50    23    43 1   
    51    23    44 1   
    52    24    50 1   
    53    25    26 1   
    54    25    51 1   
    55    25    52 1   
    56    26    45 1   
@<TRIPOS>SUBSTRUCTURE
     1 4YQ         1 TEMP              0 ****  ****    0 ROOT
