@<TRIPOS>MOLECULE
molecule
   57    61     1     0     0
SMALL
bcc


@<TRIPOS>ATOM
      1 C49          0.0000     0.0000     0.0000 cx         1 4YR      -0.141400
      2 C50          1.5300     0.0000     0.0000 cx         1 4YR      -0.141400
      3 C48          0.7650     0.0000     1.3260 cx         1 4YR      -0.129700
      4 C45          0.7650    -1.2940     2.1420 c3         1 4YR       0.192800
      5 N27          0.0860    -1.0640     3.4230 n3         1 4YR      -0.712600
      6 C28          0.2870    -2.2060     4.3420 c3         1 4YR       0.139800
      7 C26         -1.3610    -0.8680     3.2280 c3         1 4YR       0.149800
      8 C25         -2.0870    -1.9250     4.0870 c3         1 4YR      -0.121400
      9 C24         -1.0270    -2.2920     5.1580 c3         1 4YR       0.108700
     10 N22         -1.2410    -3.6500     5.6640 ns         1 4YR      -0.576900
     11 C21         -1.9930    -3.8480     6.7660 c          1 4YR       0.674700
     12 O23         -2.4930    -2.8990     7.3380 o          1 4YR      -0.590100
     13 C19         -2.2090    -5.2170     7.2770 ca         1 4YR      -0.191600
     14 C18         -1.6320    -6.3080     6.6250 ca         1 4YR      -0.052000
     15 C14         -2.9890    -5.4260     8.4180 ca         1 4YR       0.207900
     16 F20         -3.5480    -4.3750     9.0590 f          1 4YR      -0.103900
     17 C15         -3.1870    -6.7100     8.8890 ca         1 4YR      -0.185000
     18 C16         -2.6150    -7.7850     8.2340 ca         1 4YR      -0.069000
     19 C17         -1.8380    -7.5840     7.1070 ca         1 4YR      -0.153300
     20 C13         -1.2150    -8.7620     6.4030 c3         1 4YR       0.164300
     21 N7           0.1100    -9.0240     6.9710 n          1 4YR      -0.359000
     22 C1           0.2370    -9.8920     8.0460 ca         1 4YR       0.104600
     23 C6          -0.8630   -10.5220     8.6050 ca         1 4YR      -0.195000
     24 C5          -0.6920   -11.3790     9.6750 ca         1 4YR      -0.062000
     25 C4           0.5700   -11.6140    10.1970 ca         1 4YR      -0.172000
     26 C3           1.6770   -10.9960     9.6540 ca         1 4YR      -0.023000
     27 C2           1.5180   -10.1310     8.5740 ca         1 4YR      -0.208600
     28 C8           2.6660    -9.4430     7.9570 c          1 4YR       0.716100
     29 O11          3.7950    -9.6150     8.3760 o          1 4YR      -0.604500
     30 N9           2.4330    -8.6180     6.9130 ns         1 4YR      -0.560500
     31 C10          1.1910    -8.4280     6.4400 c          1 4YR       0.822500
     32 O12          1.0370    -7.6740     5.4980 o          1 4YR      -0.674500
     33 H1          -0.4670    -0.9390    -0.2700 hc         1 4YR       0.073200
     34 H2          -0.4670     0.9390    -0.2700 hc         1 4YR       0.073200
     35 H3           1.9970     0.9390    -0.2700 hc         1 4YR       0.073200
     36 H4           1.9970    -0.9390    -0.2700 hc         1 4YR       0.073200
     37 H5           0.7650     0.9490     1.8490 hc         1 4YR       0.095700
     38 H6           0.2440    -2.0680     1.5910 h1         1 4YR       0.036700
     39 H7           1.7860    -1.6060     2.3240 h1         1 4YR       0.036700
     40 H9           1.1260    -2.0160     4.9990 h1         1 4YR       0.047200
     41 H10          0.4390    -3.1190     3.7780 h1         1 4YR       0.047200
     42 H11         -1.6440     0.1260     3.5530 h1         1 4YR       0.051700
     43 H12         -1.6140    -1.0070     2.1840 h1         1 4YR       0.051700
     44 H13         -2.3420    -2.7920     3.4890 hc         1 4YR       0.057700
     45 H14         -2.9680    -1.4990     4.5520 hc         1 4YR       0.057700
     46 H15         -1.0270    -1.5670     5.9630 h1         1 4YR       0.101700
     47 H16         -0.8000    -4.4280     5.2130 hn         1 4YR       0.318500
     48 H17         -1.0240    -6.1530     5.7420 ha         1 4YR       0.154000
     49 H18         -3.7920    -6.8750     9.7730 ha         1 4YR       0.154000
     50 H19         -2.7720    -8.7900     8.6070 ha         1 4YR       0.138000
     51 H20         -1.8430    -9.6350     6.5350 h1         1 4YR       0.078700
     52 H21         -1.1190    -8.5430     5.3470 h1         1 4YR       0.078700
     53 H22         -1.8530   -10.3440     8.2030 ha         1 4YR       0.141000
     54 H23         -1.5530   -11.8710    10.1110 ha         1 4YR       0.138000
     55 H24          0.6870   -12.2880    11.0370 ha         1 4YR       0.143000
     56 H25          2.6620   -11.1820    10.0640 ha         1 4YR       0.162000
     57 H26          3.2010    -8.1470     6.4780 hn         1 4YR       0.365500
@<TRIPOS>BOND
     1    29    28 2
     2    30    28 1
     3    30    31 1
     4    28    27 1
     5    32    31 2
     6    31    21 1
     7    27    26 ar
     8    27    22 ar
     9    26    25 ar
    10    21    22 1
    11    21    20 1
    12    22    23 ar
    13    25    24 ar
    14    20    19 1
    15    23    24 ar
    16    19    14 ar
    17    19    18 ar
    18    14    13 ar
    19     6     9 1
    20     6     5 1
    21     9    10 1
    22     9     8 1
    23     4     5 1
    24     4     3 1
    25    10    11 1
    26    18    17 ar
    27     5     7 1
    28    13    11 1
    29    13    15 ar
    30    11    12 2
    31     2     3 1
    32     2     1 1
    33     3     1 1
    34    17    15 ar
    35     8     7 1
    36    15    16 1
    37     1    33 1
    38     1    34 1
    39     2    35 1
    40     2    36 1
    41     3    37 1
    42     4    38 1
    43     4    39 1
    44     6    40 1
    45     6    41 1
    46     7    42 1
    47     7    43 1
    48     8    44 1
    49     8    45 1
    50     9    46 1
    51    10    47 1
    52    14    48 1
    53    17    49 1
    54    18    50 1
    55    20    51 1
    56    20    52 1
    57    23    53 1
    58    24    54 1
    59    25    55 1
    60    26    56 1
    61    30    57 1
@<TRIPOS>SUBSTRUCTURE
     1 4YR         1 TEMP              0 ****  ****    0 ROOT
