@<TRIPOS>MOLECULE
4YR
   57    61     1     0     0
SMALL
bcc


@<TRIPOS>ATOM
      1 C49          0.0000     0.0000     0.0000 cx         1 4YR      -0.084400
      2 C50          1.5300     0.0000     0.0000 cx         1 4YR      -0.084400
      3 C48          0.7650     0.0000     1.3260 cx         1 4YR      -0.112700
      4 C45          0.7650    -1.2940     2.1420 c3         1 4YR       0.193800
      5 N27          0.0860    -1.0640     3.4230 n3         1 4YR      -0.538600
      6 C28          0.2870    -2.2060     4.3420 c3         1 4YR       0.142800
      7 C26         -1.3610    -0.8680     3.2280 c3         1 4YR       0.148800
      8 C25         -2.0870    -1.9250     4.0870 c3         1 4YR      -0.060400
      9 C24         -1.0270    -2.2920     5.1580 c3         1 4YR       0.011700
     10 N22         -1.2410    -3.6500     5.6640 ns         1 4YR      -0.188900
     11 C21         -1.9930    -3.8480     6.7660 c          1 4YR       0.596700
     12 O23         -2.4930    -2.8990     7.3380 o          1 4YR      -0.628100
     13 C19         -2.2090    -5.2170     7.2770 ca         1 4YR      -0.190600
     14 C18         -1.6320    -6.3080     6.6250 ca         1 4YR      -0.034000
     15 C14         -2.9890    -5.4260     8.4180 ca         1 4YR       0.192900
     16 F20         -3.5480    -4.3750     9.0590 f          1 4YR      -0.105900
     17 C15         -3.1870    -6.7100     8.8890 ca         1 4YR      -0.150000
     18 C16         -2.6150    -7.7850     8.2340 ca         1 4YR      -0.050000
     19 C17         -1.8380    -7.5840     7.1070 ca         1 4YR      -0.157300
     20 C13         -1.2150    -8.7620     6.4030 c3         1 4YR       0.092300
     21 N7           0.1100    -9.0240     6.9710 n          1 4YR       0.050000
     22 C1           0.2370    -9.8920     8.0460 ca         1 4YR      -0.040400
     23 C6          -0.8630   -10.5220     8.6050 ca         1 4YR      -0.180000
     24 C5          -0.6920   -11.3790     9.6750 ca         1 4YR      -0.027000
     25 C4           0.5700   -11.6140    10.1970 ca         1 4YR      -0.145000
     26 C3           1.6770   -10.9960     9.6540 ca         1 4YR       0.015000
     27 C2           1.5180   -10.1310     8.5740 ca         1 4YR      -0.217600
     28 C8           2.6660    -9.4430     7.9570 c          1 4YR       0.632100
     29 O11          3.7950    -9.6150     8.3760 o          1 4YR      -0.641500
     30 N9           2.4330    -8.6180     6.9130 ns         1 4YR      -0.131500
     31 C10          1.1910    -8.4280     6.4400 c          1 4YR       0.601500
     32 O12          1.0370    -7.6740     5.4980 o          1 4YR      -0.726500
     33 H1          -0.4670    -0.9390    -0.2700 hc         1 4YR       0.044450
     34 H2          -0.4670     0.9390    -0.2700 hc         1 4YR       0.044450
     35 H3           1.9970     0.9390    -0.2700 hc         1 4YR       0.044450
     36 H4           1.9970    -0.9390    -0.2700 hc         1 4YR       0.044450
     37 H5           0.7650     0.9490     1.8490 hc         1 4YR       0.070700
     38 H6           0.2440    -2.0680     1.5910 h1         1 4YR       0.010700
     39 H7           1.7860    -1.6060     2.3240 h1         1 4YR       0.010700
     40 H9           1.1260    -2.0160     4.9990 h1         1 4YR       0.017700
     41 H10          0.4390    -3.1190     3.7780 h1         1 4YR       0.017700
     42 H11         -1.6440     0.1260     3.5530 h1         1 4YR       0.022200
     43 H12         -1.6140    -1.0070     2.1840 h1         1 4YR       0.022200
     44 H13         -2.3420    -2.7920     3.4890 hc         1 4YR       0.028200
     45 H14         -2.9680    -1.4990     4.5520 hc         1 4YR       0.028200
     46 H15         -1.0270    -1.5670     5.9630 h1         1 4YR       0.075700
     47 H16         -0.8000    -4.4280     5.2130 hn         1 4YR       0.183500
     48 H17         -1.0240    -6.1530     5.7420 ha         1 4YR       0.131000
     49 H18         -3.7920    -6.8750     9.7730 ha         1 4YR       0.125000
     50 H19         -2.7720    -8.7900     8.6070 ha         1 4YR       0.113000
     51 H20         -1.8430    -9.6350     6.5350 h1         1 4YR       0.049200
     52 H21         -1.1190    -8.5430     5.3470 h1         1 4YR       0.049200
     53 H22         -1.8530   -10.3440     8.2030 ha         1 4YR       0.128000
     54 H23         -1.5530   -11.8710    10.1110 ha         1 4YR       0.105000
     55 H24          0.6870   -12.2880    11.0370 ha         1 4YR       0.114000
     56 H25          2.6620   -11.1820    10.0640 ha         1 4YR       0.128000
     57 H26          3.2010    -8.1470     6.4780 hn         1 4YR       0.207500
@<TRIPOS>BOND
     1     1     2 1   
     2     1     3 1   
     3     1    33 1   
     4     1    34 1   
     5     2     3 1   
     6     2    35 1   
     7     2    36 1   
     8     3     4 1   
     9     3    37 1   
    10     4     5 1   
    11     4    38 1   
    12     4    39 1   
    13     5     6 1   
    14     5     7 1   
    15     6     9 1   
    16     6    40 1   
    17     6    41 1   
    18     7     8 1   
    19     7    42 1   
    20     7    43 1   
    21     8     9 1   
    22     8    44 1   
    23     8    45 1   
    24     9    10 1   
    25     9    46 1   
    26    10    11 1   
    27    10    47 1   
    28    11    12 2   
    29    11    13 1   
    30    13    14 ar  
    31    13    15 ar  
    32    14    19 ar  
    33    14    48 1   
    34    15    16 1   
    35    15    17 ar  
    36    17    18 ar  
    37    17    49 1   
    38    18    19 ar  
    39    18    50 1   
    40    19    20 1   
    41    20    21 1   
    42    20    51 1   
    43    20    52 1   
    44    21    22 1   
    45    21    31 1   
    46    22    23 ar  
    47    22    27 ar  
    48    23    24 ar  
    49    23    53 1   
    50    24    25 ar  
    51    24    54 1   
    52    25    26 ar  
    53    25    55 1   
    54    26    27 ar  
    55    26    56 1   
    56    27    28 1   
    57    28    29 2   
    58    28    30 1   
    59    30    31 1   
    60    30    57 1   
    61    31    32 2   
@<TRIPOS>SUBSTRUCTURE
     1 4YR         1 TEMP              0 ****  ****    0 ROOT
