@<TRIPOS>MOLECULE
molecule
   18    19     1     0     0
SMALL
bcc


@<TRIPOS>ATOM
      1 CAE          0.0000     0.0000     0.0000 ca         1 4YS      -0.138000
      2 CAB          1.3670     0.0000     0.0000 ca         1 4YS      -0.096000
      3 CAC          2.0810     0.0000     1.1910 ca         1 4YS      -0.152000
      4 CAF          1.4270    -0.0010     2.4030 ca         1 4YS      -0.057000
      5 CAK          0.0330    -0.0010     2.4290 ca         1 4YS      -0.158600
      6 CAJ         -0.6890     0.0050     1.2140 ca         1 4YS       0.000200
      7 CAG         -2.1520     0.0050     1.2740 cc         1 4YS      -0.207200
      8 CAD         -2.7630    -0.0010     2.4700 cd         1 4YS      -0.008400
      9 NAH         -2.0690    -0.0060     3.6460 ns         1 4YS      -0.438100
     10 CAI         -0.7220    -0.0020     3.6870 c          1 4YS       0.707100
     11 OAA         -0.1380    -0.0080     4.7560 o          1 4YS      -0.639500
     12 H1          -0.5450     0.0000    -0.9360 ha         1 4YS       0.135000
     13 H2           1.9010     0.0010    -0.9430 ha         1 4YS       0.131000
     14 H3           3.1640     0.0000     1.1660 ha         1 4YS       0.135000
     15 H4           1.9900    -0.0010     3.3290 ha         1 4YS       0.155000
     16 H5          -2.7370     0.0090     0.3620 ha         1 4YS       0.149000
     17 H6          -3.8460    -0.0050     2.5030 h4         1 4YS       0.148000
     18 H7          -2.5780    -0.0110     4.5080 hn         1 4YS       0.334500
@<TRIPOS>BOND
     1    11    10 2
     2    10     9 1
     3    10     5 1
     4     9     8 1
     5     4     5 ar
     6     4     3 ar
     7     5     6 ar
     8     3     2 ar
     9     8     7 2
    10     6     7 1
    11     6     1 ar
    12     2     1 ar
    13     1    12 1
    14     2    13 1
    15     3    14 1
    16     4    15 1
    17     7    16 1
    18     8    17 1
    19     9    18 1
@<TRIPOS>SUBSTRUCTURE
     1 4YS         1 TEMP              0 ****  ****    0 ROOT
