@<TRIPOS>MOLECULE
4YS
   18    19     1     0     0
SMALL
bcc


@<TRIPOS>ATOM
      1 CAE          0.0000     0.0000     0.0000 ca         1 4YS      -0.111000
      2 CAB          1.3670     0.0000     0.0000 ca         1 4YS      -0.068000
      3 CAC          2.0810     0.0000     1.1910 ca         1 4YS      -0.127000
      4 CAF          1.4270    -0.0010     2.4030 ca         1 4YS      -0.023000
      5 CAK          0.0330    -0.0010     2.4290 ca         1 4YS      -0.165600
      6 CAJ         -0.6890     0.0050     1.2140 ca         1 4YS      -0.000800
      7 CAG         -2.1520     0.0050     1.2740 cc         1 4YS      -0.167200
      8 CAD         -2.7630    -0.0010     2.4700 cd         1 4YS      -0.149400
      9 NAH         -2.0690    -0.0060     3.6460 ns         1 4YS       0.036900
     10 CAI         -0.7220    -0.0020     3.6870 c          1 4YS       0.609100
     11 OAA         -0.1380    -0.0080     4.7560 o          1 4YS      -0.683500
     12 H1          -0.5450     0.0000    -0.9360 ha         1 4YS       0.109000
     13 H2           1.9010     0.0010    -0.9430 ha         1 4YS       0.100000
     14 H3           3.1640     0.0000     1.1660 ha         1 4YS       0.106000
     15 H4           1.9900    -0.0010     3.3290 ha         1 4YS       0.125000
     16 H5          -2.7370     0.0090     0.3620 ha         1 4YS       0.122000
     17 H6          -3.8460    -0.0050     2.5030 h4         1 4YS       0.119000
     18 H7          -2.5780    -0.0110     4.5080 hn         1 4YS       0.169500
@<TRIPOS>BOND
     1     1     2 ar  
     2     1     6 ar  
     3     1    12 1   
     4     2     3 ar  
     5     2    13 1   
     6     3     4 ar  
     7     3    14 1   
     8     4     5 ar  
     9     4    15 1   
    10     5     6 ar  
    11     5    10 1   
    12     6     7 1   
    13     7     8 2   
    14     7    16 1   
    15     8     9 1   
    16     8    17 1   
    17     9    10 1   
    18     9    18 1   
    19    10    11 2   
@<TRIPOS>SUBSTRUCTURE
     1 4YS         1 TEMP              0 ****  ****    0 ROOT
