@<TRIPOS>MOLECULE
molecule
   33    35     1     0     0
SMALL
bcc


@<TRIPOS>ATOM
      1 CAA          0.0000     0.0000     0.0000 c3         1 4YT      -0.096100
      2 CAH          1.5310     0.0000     0.0000 c3         1 4YT      -0.080700
      3 CAN          2.0330     0.0000     1.4210 cc         1 4YT       0.312800
      4 NAI          2.4160    -1.0450     2.1070 nc         1 4YT      -0.354700
      5 NAJ          2.7900    -0.6910     3.2840 nc         1 4YT      -0.084000
      6 CAO          2.6650     0.6190     3.4150 cd         1 4YT      -0.064300
      7 CAF          2.9350     1.4990     4.4890 cd         1 4YT      -0.094000
      8 NAR          2.1780     1.0900     2.2240 na         1 4YT      -0.077200
      9 CAQ          1.9380     2.4380     2.0380 ca         1 4YT       0.074700
     10 CAG          1.4490     2.9170     0.8300 ca         1 4YT      -0.195000
     11 CAL          1.2190     4.2730     0.6710 ca         1 4YT       0.168100
     12 OAK          0.7400     4.7410    -0.5110 os         1 4YT      -0.323900
     13 CAB          0.5230     6.1500    -0.6100 c3         1 4YT       0.127700
     14 CAD          1.4740     5.1610     1.7140 ca         1 4YT      -0.224000
     15 CAE          1.9550     4.7060     2.9090 ca         1 4YT      -0.055000
     16 CAP          2.1940     3.3400     3.0880 ca         1 4YT      -0.094000
     17 CAM          2.7150     2.8270     4.3580 cc         1 4YT      -0.061300
     18 CAC          3.0000     3.7670     5.5020 c3         1 4YT      -0.044800
     19 H1          -0.3610     0.2820     0.9820 hc         1 4YT       0.044033
     20 H2          -0.3610     0.7090    -0.7350 hc         1 4YT       0.044033
     21 H3          -0.3610    -0.9910    -0.2470 hc         1 4YT       0.044033
     22 H4           1.8920    -0.8850    -0.5110 hc         1 4YT       0.067200
     23 H5           1.8920     0.8840    -0.5110 hc         1 4YT       0.067200
     24 H6           3.3200     1.1070     5.4230 ha         1 4YT       0.162000
     25 H7           1.3390     2.2470    -0.0140 ha         1 4YT       0.167000
     26 H8          -0.1970     6.4580     0.1380 h1         1 4YT       0.045367
     27 H9           0.1430     6.3880    -1.5960 h1         1 4YT       0.045367
     28 H10          1.4580     6.6720    -0.4480 h1         1 4YT       0.045367
     29 H11          1.2890     6.2190     1.5770 ha         1 4YT       0.142000
     30 H12          2.1510     5.4020     3.7160 ha         1 4YT       0.144000
     31 H13          2.0880     4.2790     5.7840 hc         1 4YT       0.049700
     32 H14          3.7430     4.4940     5.1950 hc         1 4YT       0.049700
     33 H15          3.3750     3.2030     6.3470 hc         1 4YT       0.049700
@<TRIPOS>BOND
     1     5     4 1   
     2     5     6 2   
     3     4     3 2   
     4     1     2 1   
     5     6     7 1   
     6     6     8 1   
     7     7    17 2   
     8     3     8 1   
     9     3     2 1   
    10     8     9 1   
    11    17    18 1   
    12    17    16 1   
    13     9    16 ar  
    14     9    10 ar  
    15    16    15 ar  
    16    10    11 ar  
    17    15    14 ar  
    18    11    14 ar  
    19    11    12 1   
    20    13    12 1   
    21     1    19 1   
    22     1    20 1   
    23     1    21 1   
    24     2    22 1   
    25     2    23 1   
    26     7    24 1   
    27    10    25 1   
    28    13    26 1   
    29    13    27 1   
    30    13    28 1   
    31    14    29 1   
    32    15    30 1   
    33    18    31 1   
    34    18    32 1   
    35    18    33 1   
@<TRIPOS>SUBSTRUCTURE
     1 4YT         1 TEMP              0 ****  ****    0 ROOT
