@<TRIPOS>MOLECULE
4YU
   44    45     1     0     0
SMALL
bcc


@<TRIPOS>ATOM
      1 O3          0.1990    0.0490    0.1830 os        1 4YU     -0.324900
      2 C4          4.3940    0.5940    4.8030 c3        1 4YU      0.145000
      3 C5          5.2930   -0.0820    2.5290 c         1 4YU      0.607300
      4 C6          5.0600    0.0480    1.1350 cc        1 4YU     -0.332400
      5 N1          5.5710    0.3170   -1.0840 na        1 4YU     -0.016400
      6 C7          6.1160    0.1530    0.1680 cd        1 4YU      0.128700
      7 C8          7.5720    0.1190    0.4200 c3        1 4YU     -0.096900
      8 C9          6.2950    0.4500   -2.3140 c3        1 4YU      0.001600
      9 C10         4.1590    0.2970   -0.9810 ca        1 4YU     -0.099200
     10 C11         3.1880    0.4110   -1.9820 ca        1 4YU     -0.054000
     11 C12         1.8530    0.3410   -1.6140 ca        1 4YU     -0.184000
     12 C13         1.4960    0.1440   -0.2650 ca        1 4YU      0.169100
     13 C14        -0.8310    0.1290   -0.8030 c3        1 4YU      0.108700
     14 C15         2.4610    0.0230    0.7510 ca        1 4YU     -0.194000
     15 O1          5.5050    4.8490    5.0550 o         1 4YU     -0.516000
     16 C1          4.6860    4.2900    5.7890 c         1 4YU      0.615300
     17 O           4.1010    4.9900    6.8000 os        1 4YU     -0.421900
     18 C           4.5080    6.3560    6.9520 c3        1 4YU      0.123700
     19 C2          4.2150    2.8930    5.7160 ce        1 4YU     -0.122200
     20 C3          4.7920    2.0290    4.8740 c2        1 4YU     -0.182200
     21 N           4.0660    0.1650    3.4110 n4        1 4YU     -0.674800
     22 O2          6.3220   -0.3520    3.1460 o         1 4YU     -0.490100
     23 C16         3.8040    0.1190    0.4070 ca        1 4YU     -0.011800
     24 H1          3.4860    0.3880    5.4430 hx        1 4YU      0.117200
     25 H2          5.2520   -0.0450    5.1750 hx        1 4YU      0.117200
     26 H3          8.0700   -0.6380   -0.2390 hc        1 4YU      0.091700
     27 H4          7.7820   -0.1500    1.4860 hc        1 4YU      0.091700
     28 H5          8.0250    1.1230    0.2090 hc        1 4YU      0.091700
     29 H6          7.3130    0.8790   -2.1110 h1        1 4YU      0.078033
     30 H7          5.7330    1.1340   -3.0050 h1        1 4YU      0.078033
     31 H8          6.4080   -0.5570   -2.8020 h1        1 4YU      0.078033
     32 H9          3.4710    0.5500   -3.0370 ha        1 4YU      0.158000
     33 H10         1.0750    0.4330   -2.3880 ha        1 4YU      0.164000
     34 H11        -1.7680    0.0110   -0.1990 h1        1 4YU      0.059700
     35 H12        -0.7300   -0.7010   -1.5430 h1        1 4YU      0.059700
     36 H13        -0.8100    1.1230   -1.3100 h1        1 4YU      0.059700
     37 H14         2.0970   -0.1770    1.7650 ha        1 4YU      0.127000
     38 H15         5.6050    6.4040    7.1510 h1        1 4YU      0.064033
     39 H16         4.2560    6.9290    6.0280 h1        1 4YU      0.064033
     40 H17         3.9110    6.7040    7.8310 h1        1 4YU      0.064033
     41 H18         3.3870    2.6350    6.3980 ha        1 4YU      0.168000
     42 H20         5.6380    2.3370    4.2310 ha        1 4YU      0.175000
     43 H22         3.4870    0.8830    2.9560 hn        1 4YU      0.459800
     44 HN3         3.5300   -0.7090    3.4490 hn        1 4YU      0.459800
@<TRIPOS>BOND
     1    1   12 1   
     2    1   13 1   
     3    2   20 1   
     4    2   21 1   
     5    2   24 1   
     6    2   25 1   
     7    3    4 1   
     8    3   21 1   
     9    3   22 2   
    10    4    6 2   
    11    4   23 1   
    12    5    6 1   
    13    5    8 1   
    14    5    9 1   
    15    6    7 1   
    16    7   26 1   
    17    7   27 1   
    18    7   28 1   
    19    8   29 1   
    20    8   30 1   
    21    8   31 1   
    22    9   10 ar  
    23    9   23 ar  
    24   10   11 ar  
    25   10   32 1   
    26   11   12 ar  
    27   11   33 1   
    28   12   14 ar  
    29   13   34 1   
    30   13   35 1   
    31   13   36 1   
    32   14   23 ar  
    33   14   37 1   
    34   15   16 2   
    35   16   17 1   
    36   16   19 1   
    37   17   18 1   
    38   18   38 1   
    39   18   39 1   
    40   18   40 1   
    41   19   20 2   
    42   19   41 1   
    43   20   42 1   
    44   21   43 1   
    45   21   44 1   
@<TRIPOS>SUBSTRUCTURE
     1 4YU         1 TEMP              0 ****  ****    0 ROOT
