@<TRIPOS>MOLECULE
molecule
   43    44     1     0     0
SMALL
bcc


@<TRIPOS>ATOM
      1 O3           0.0000     0.0000     0.0000 os         1 4YU      -0.327900
      2 C4           5.3380     1.1700     4.5230 c3         1 4YU       0.138200
      3 C5           5.0900     0.0020     2.3990 c          1 4YU       0.707300
      4 C6           4.9140     0.0000     0.9410 cc         1 4YU      -0.235400
      5 N1           5.3560    -0.0070    -1.2390 na         1 4YU      -0.060400
      6 C7           5.9020     0.0000     0.0000 cd         1 4YU       0.000700
      7 C8           7.3800     0.0070     0.2950 c3         1 4YU      -0.038900
      8 C9           6.1180    -0.0110    -2.4890 c3         1 4YU       0.037600
      9 C10          3.9770    -0.0060    -1.1560 ca         1 4YU      -0.073200
     10 C11          2.9670    -0.0120    -2.1130 ca         1 4YU      -0.101000
     11 C12          1.6460    -0.0100    -1.7210 ca         1 4YU      -0.196000
     12 C13          1.3080    -0.0020    -0.3720 ca         1 4YU       0.120100
     13 C14         -0.9710    -0.0060    -1.0480 c3         1 4YU       0.129700
     14 C15          2.2990    -0.0150     0.5930 ca         1 4YU      -0.123000
     15 O1           5.4080     5.1590     5.9920 o          1 4YU      -0.557000
     16 C1           4.6000     4.3790     6.4590 c          1 4YU       0.635300
     17 O            3.7510     4.7870     7.4230 os         1 4YU      -0.423900
     18 C            3.8570     6.1700     7.8540 c3         1 4YU       0.140700
     19 C2           4.5500     2.9930     5.9730 ce         1 4YU      -0.203200
     20 C3           5.3890     2.5920     5.0210 c2         1 4YU      -0.112200
     21 N            5.1630     1.1700     3.0680 ns         1 4YU      -0.583900
     22 O2           5.1680    -1.0520     3.0030 o          1 4YU      -0.600100
     23 C16          3.6370    -0.0070     0.2060 ca         1 4YU      -0.031800
     24 H1           6.2620     0.6650     4.7770 h1         1 4YU       0.064200
     25 H2           4.5050     0.6550     4.9870 h1         1 4YU       0.064200
     26 H3           7.8820    -0.6960    -0.3580 hc         1 4YU       0.056033
     27 H4           7.7770     1.0010     0.1290 hc         1 4YU       0.056033
     28 H5           7.5430    -0.2790     1.3270 hc         1 4YU       0.056033
     29 H6           6.8970     0.7410    -2.4390 h1         1 4YU       0.050700
     30 H7           6.5670    -0.9860    -2.6360 h1         1 4YU       0.050700
     31 H8           5.4560     0.2110    -3.3170 h1         1 4YU       0.050700
     32 H9           3.2190    -0.0180    -3.1660 ha         1 4YU       0.126000
     33 H10          0.8640    -0.0140    -2.4710 ha         1 4YU       0.137000
     34 H11         -0.8360     0.8700    -1.6710 h1         1 4YU       0.039367
     35 H12         -1.9660     0.0060    -0.6190 h1         1 4YU       0.039367
     36 H13         -0.8480    -0.8990    -1.6490 h1         1 4YU       0.039367
     37 H14          2.0370    -0.1500     1.6360 ha         1 4YU       0.152000
     38 H15          4.8500     6.3500     8.2470 h1         1 4YU       0.049700
     39 H16          3.1220     6.3640     8.6270 h1         1 4YU       0.049700
     40 H17          3.6770     6.8260     7.0120 h1         1 4YU       0.049700
     41 H18          3.8310     2.2990     6.3910 ha         1 4YU       0.150000
     42 H20          6.1080     3.2860     4.6040 ha         1 4YU       0.155000
     43 H22          5.0650     2.0350     2.5760 hn         1 4YU       0.322500
@<TRIPOS>BOND
     1     8     5 1
     2     7     6 1
     3     5     6 1
     4     5     9 1
     5     6     4 2
     6     9    10 ar
     7     9    23 ar
     8    10    11 ar
     9    22     3 2
    10     4    23 1
    11     4     3 1
    12    23    14 ar
    13    11    12 ar
    14     3    21 1
    15    14    12 ar
    16    12     1 1
    17    21     2 1
    18     1    13 1
    19     2    20 1
    20    20    19 2
    21    19    16 1
    22    16    15 2
    23    16    17 1
    24    17    18 1
    25     2    24 1
    26     2    25 1
    27     7    26 1
    28     7    27 1
    29     7    28 1
    30     8    29 1
    31     8    30 1
    32     8    31 1
    33    10    32 1
    34    11    33 1
    35    13    34 1
    36    13    35 1
    37    13    36 1
    38    14    37 1
    39    18    38 1
    40    18    39 1
    41    18    40 1
    42    19    41 1
    43    20    42 1
    44    21    43 1
@<TRIPOS>SUBSTRUCTURE
     1 4YU         1 TEMP              0 ****  ****    0 ROOT
