@<TRIPOS>MOLECULE
molecule
   56    60     1     0     0
SMALL
bcc


@<TRIPOS>ATOM
      1 C4           0.0000     0.0000     0.0000 c3         1 4YV      -0.094400
      2 C5           1.5310     0.0000     0.0000 c3         1 4YV       0.176800
      3 C11          5.3900     0.3410     0.2790 ca         1 4YV       0.505200
      4 C7           1.5880    -1.2060     2.1010 c3         1 4YV       0.176800
      5 C8           0.0590    -1.2420     2.1630 c3         1 4YV      -0.094400
      6 C9           3.3990     0.1320     1.4220 ca         1 4YV       0.896900
      7 C12          6.0690     0.3760     1.4810 ca         1 4YV      -0.471600
      8 C13          5.3350     0.2770     2.6650 ca         1 4YV       0.733200
      9 C3          -0.5050    -1.2420     0.7400 c3         1 4YV       0.138100
     10 O2          -1.9330    -1.2180     0.7930 os         1 4YV      -0.423600
     11 N6           2.0210     0.0000     1.3840 nh         1 4YV      -0.677300
     12 N10          4.0710     0.2190     0.2840 nb         1 4YV      -0.817000
     13 N14          4.0130     0.1510     2.5950 nb         1 4YV      -0.745000
     14 N15          5.9740     0.3080     3.8950 nu         1 4YV      -0.861600
     15 C16          5.2250     0.3180     5.0700 ca         1 4YV       0.684200
     16 C17          5.8700     0.4590     6.2890 ca         1 4YV      -0.318300
     17 C18          5.1100     0.4680     7.4500 ca         1 4YV      -0.037200
     18 C19          3.7110     0.3330     7.3440 ca         1 4YV      -0.071900
     19 C20          3.1430     0.1970     6.0780 ca         1 4YV       0.515200
     20 N21          3.9040     0.1990     5.0040 nb         1 4YV      -0.683000
     21 N22          3.2150     0.3720     8.6070 nc         1 4YV      -0.585100
     22 C23          4.1920     0.5180     9.4550 cd         1 4YV       0.419700
     23 N24          5.3820     0.5820     8.7930 na         1 4YV      -0.151300
     24 C25          6.7050     0.7430     9.4010 c3         1 4YV       0.053000
     25 C26          6.7430     2.0290    10.2520 c3         1 4YV      -0.099400
     26 C27          6.4410     1.5420    11.6910 c3         1 4YV      -0.086900
     27 C28          7.1920     0.1880    11.7590 c3         1 4YV      -0.086900
     28 C29          6.9910    -0.4270    10.3590 c3         1 4YV      -0.099400
     29 H1          -0.3610    -0.0180    -1.0210 hc         1 4YV       0.060950
     30 H2          -0.3610     0.8900     0.5010 hc         1 4YV       0.060950
     31 H3           1.8900     0.8860    -0.5090 h1         1 4YV       0.055950
     32 H4           1.8900    -0.8860    -0.5090 h1         1 4YV       0.055950
     33 H5           5.9300     0.4140    -0.6570 h4         1 4YV       0.026100
     34 H6           1.9890    -1.1890     3.1070 h1         1 4YV       0.055950
     35 H7           1.9470    -2.0840     1.5780 h1         1 4YV       0.055950
     36 H8          -0.2590    -2.1410     2.6770 hc         1 4YV       0.060950
     37 H9          -0.3010    -0.3690     2.6940 hc         1 4YV       0.060950
     38 H10          7.1470     0.4770     1.5050 ha         1 4YV       0.137000
     39 H11         -0.1710    -2.1320     0.2200 h1         1 4YV       0.032700
     40 H12         -2.3600    -3.0090    -0.1320 h1         1 4YV       0.028367
     41 H13         -3.6010    -2.4140     0.9780 h1         1 4YV       0.028367
     42 H14         -2.1010    -3.1010     1.6150 h1         1 4YV       0.028367
     43 H15          6.9740     0.3260     3.9390 hn         1 4YV       0.464800
     44 H16          6.9100     0.7610     6.3200 ha         1 4YV       0.129000
     45 H17          2.0690     0.0970     5.9770 h4         1 4YV       0.040100
     46 H18          4.0760     0.5790    10.5310 h5         1 4YV       0.076800
     47 H19          7.4680     0.7860     8.6330 h1         1 4YV       0.074700
     48 H20          5.9810     2.7230     9.9200 hc         1 4YV       0.060700
     49 H21          7.7250     2.4830    10.2060 hc         1 4YV       0.060700
     50 H22          6.8380     2.2370    12.4210 hc         1 4YV       0.050450
     51 H23          5.3760     1.3950    11.8290 hc         1 4YV       0.050450
     52 H24          6.7550    -0.4490    12.5180 hc         1 4YV       0.050450
     53 H25          8.2460     0.3510    11.9510 hc         1 4YV       0.050450
     54 H26          6.1480    -1.1080    10.3730 hc         1 4YV       0.060700
     55 H27          7.8900    -0.9460    10.0510 hc         1 4YV       0.060700
     56 C1          -2.5350    -2.5140     0.8150 c3         1 4YV       0.128700
@<TRIPOS>BOND
     1     1     2 1
     2     1     9 1
     3     2    11 1
     4    10    56 1
     5    10     9 1
     6     9     5 1
     7    12     3 ar
     8    12     6 ar
     9     3     7 ar
    10    11     6 1
    11    11     4 1
    12     6    13 ar
    13     5     4 1
    14     7     8 ar
    15    13     8 ar
    16     8    14 1
    17    14    15 1
    18    15    16 ar
    19    15    20 ar
    20    25    26 1
    21    25    24 1
    22    16    17 ar
    23    26    27 1
    24    24    23 1
    25    24    28 1
    26    20    19 ar
    27    17    23 1
    28    17    18 ar
    29    27    28 1
    30    23    22 1
    31    19    18 ar
    32    18    21 1
    33    22    21 2
    34     1    29 1
    35     1    30 1
    36     2    31 1
    37     2    32 1
    38     3    33 1
    39     4    34 1
    40     4    35 1
    41     5    36 1
    42     5    37 1
    43     7    38 1
    44     9    39 1
    45    56    40 1
    46    56    41 1
    47    56    42 1
    48    14    43 1
    49    16    44 1
    50    19    45 1
    51    22    46 1
    52    24    47 1
    53    25    48 1
    54    25    49 1
    55    26    50 1
    56    26    51 1
    57    27    52 1
    58    27    53 1
    59    28    54 1
    60    28    55 1
@<TRIPOS>SUBSTRUCTURE
     1 4YV         1 TEMP              0 ****  ****    0 ROOT
