@<TRIPOS>MOLECULE
4YV
   56    60     1     0     0
SMALL
bcc


@<TRIPOS>ATOM
      1 C4           0.0000     0.0000     0.0000 c3         1 4YV      -0.047400
      2 C5           1.5310     0.0000     0.0000 c3         1 4YV       0.144800
      3 C11          5.3900     0.3410     0.2790 ca         1 4YV       0.501200
      4 C7           1.5880    -1.2060     2.1010 c3         1 4YV       0.144800
      5 C8           0.0590    -1.2420     2.1630 c3         1 4YV      -0.047400
      6 C9           3.3990     0.1320     1.4220 ca         1 4YV       0.730900
      7 C12          6.0690     0.3760     1.4810 ca         1 4YV      -0.451600
      8 C13          5.3350     0.2770     2.6650 ca         1 4YV       0.532200
      9 C3          -0.5050    -1.2420     0.7400 c3         1 4YV       0.173100
     10 O2          -1.9330    -1.2180     0.7930 os         1 4YV      -0.407600
     11 N6           2.0210     0.0000     1.3840 nh         1 4YV      -0.438300
     12 N10          4.0710     0.2190     0.2840 nb         1 4YV      -0.717000
     13 N14          4.0130     0.1510     2.5950 nb         1 4YV      -0.634000
     14 N15          5.9740     0.3080     3.8950 nu         1 4YV      -0.399600
     15 C16          5.2250     0.3180     5.0700 ca         1 4YV       0.484200
     16 C17          5.8700     0.4590     6.2890 ca         1 4YV      -0.283300
     17 C18          5.1100     0.4680     7.4500 ca         1 4YV      -0.204200
     18 C19          3.7110     0.3330     7.3440 ca         1 4YV      -0.093900
     19 C20          3.1430     0.1970     6.0780 ca         1 4YV       0.501200
     20 N21          3.9040     0.1990     5.0040 nb         1 4YV      -0.574000
     21 N22          3.2150     0.3720     8.6070 nc         1 4YV      -0.494100
     22 C23          4.1920     0.5180     9.4550 cd         1 4YV       0.243700
     23 N24          5.3820     0.5820     8.7930 na         1 4YV       0.307700
     24 C25          6.7050     0.7430     9.4010 c3         1 4YV      -0.061000
     25 C26          6.7430     2.0290    10.2520 c3         1 4YV      -0.039900
     26 C27          6.4410     1.5420    11.6910 c3         1 4YV      -0.026900
     27 C28          7.1920     0.1880    11.7590 c3         1 4YV      -0.026900
     28 C29          6.9910    -0.4270    10.3590 c3         1 4YV      -0.039900
     29 H1          -0.3610    -0.0180    -1.0210 hc         1 4YV       0.029700
     30 H2          -0.3610     0.8900     0.5010 hc         1 4YV       0.029700
     31 H3           1.8900     0.8860    -0.5090 h1         1 4YV       0.027450
     32 H4           1.8900    -0.8860    -0.5090 h1         1 4YV       0.027450
     33 H5           5.9300     0.4140    -0.6570 h4         1 4YV      -0.020900
     34 H6           1.9890    -1.1890     3.1070 h1         1 4YV       0.027450
     35 H7           1.9470    -2.0840     1.5780 h1         1 4YV       0.027450
     36 H8          -0.2590    -2.1410     2.6770 hc         1 4YV       0.029700
     37 H9          -0.3010    -0.3690     2.6940 hc         1 4YV       0.029700
     38 H10          7.1470     0.4770     1.5050 ha         1 4YV       0.123000
     39 H11         -0.1710    -2.1320     0.2200 h1         1 4YV       0.006700
     40 H12         -2.3600    -3.0090    -0.1320 h1         1 4YV      -0.013633
     41 H13         -3.6010    -2.4140     0.9780 h1         1 4YV      -0.013633
     42 H14         -2.1010    -3.1010     1.6150 h1         1 4YV      -0.013633
     43 H15          6.9740     0.3260     3.9390 hn         1 4YV       0.288800
     44 H16          6.9100     0.7610     6.3200 ha         1 4YV       0.113000
     45 H17          2.0690     0.0970     5.9770 h4         1 4YV      -0.011900
     46 H18          4.0760     0.5790    10.5310 h5         1 4YV       0.034800
     47 H19          7.4680     0.7860     8.6330 h1         1 4YV       0.048700
     48 H20          5.9810     2.7230     9.9200 hc         1 4YV       0.029450
     49 H21          7.7250     2.4830    10.2060 hc         1 4YV       0.029450
     50 H22          6.8380     2.2370    12.4210 hc         1 4YV       0.021700
     51 H23          5.3760     1.3950    11.8290 hc         1 4YV       0.021700
     52 H24          6.7550    -0.4490    12.5180 hc         1 4YV       0.021700
     53 H25          8.2460     0.3510    11.9510 hc         1 4YV       0.021700
     54 H26          6.1480    -1.1080    10.3730 hc         1 4YV       0.029450
     55 H27          7.8900    -0.9460    10.0510 hc         1 4YV       0.029450
     56 C1          -2.5350    -2.5140     0.8150 c3         1 4YV       0.249700
@<TRIPOS>BOND
     1     1     2 1   
     2     1     9 1   
     3     1    29 1   
     4     1    30 1   
     5     2    11 1   
     6     2    31 1   
     7     2    32 1   
     8     3     7 ar  
     9     3    12 ar  
    10     3    33 1   
    11     4     5 1   
    12     4    11 1   
    13     4    34 1   
    14     4    35 1   
    15     5     9 1   
    16     5    36 1   
    17     5    37 1   
    18     6    11 1   
    19     6    12 ar  
    20     6    13 ar  
    21     7     8 ar  
    22     7    38 1   
    23     8    13 ar  
    24     8    14 1   
    25     9    10 1   
    26     9    39 1   
    27    10    56 1   
    28    14    15 1   
    29    14    43 1   
    30    15    16 ar  
    31    15    20 ar  
    32    16    17 ar  
    33    16    44 1   
    34    17    18 ar  
    35    17    23 1   
    36    18    19 ar  
    37    18    21 1   
    38    19    20 ar  
    39    19    45 1   
    40    21    22 2   
    41    22    23 1   
    42    22    46 1   
    43    23    24 1   
    44    24    25 1   
    45    24    28 1   
    46    24    47 1   
    47    25    26 1   
    48    25    48 1   
    49    25    49 1   
    50    26    27 1   
    51    26    50 1   
    52    26    51 1   
    53    27    28 1   
    54    27    52 1   
    55    27    53 1   
    56    28    54 1   
    57    28    55 1   
    58    40    56 1   
    59    41    56 1   
    60    42    56 1   
@<TRIPOS>SUBSTRUCTURE
     1 4YV         1 TEMP              0 ****  ****    0 ROOT
