@<TRIPOS>MOLECULE
molecule
   57    60     1     0     0
SMALL
bcc


@<TRIPOS>ATOM
      1 C4           0.0000     0.0000     0.0000 ca         1 4YW      -0.064900
      2 C5           1.3940     0.0000     0.0000 ca         1 4YW       0.511200
      3 C11         -3.1270     0.0180     1.8930 c3         1 4YW       0.052000
      4 C7           1.4500    -0.0000     2.3150 ca         1 4YW       0.678200
      5 C8           0.0670     0.0090     2.4050 ca         1 4YW      -0.312300
      6 C9          -0.6790     0.0080     1.2350 ca         1 4YW      -0.036200
      7 C12         -3.1000    -1.2740     2.7120 c3         1 4YW      -0.110100
      8 C13         -2.9810     1.2190     2.8300 c3         1 4YW      -0.110100
      9 N3          -0.9490    -0.0010    -0.9710 nc         1 4YW      -0.584100
     10 C1          -3.4320    -0.0000    -1.1860 c3         1 4YW      -0.095400
     11 C2          -2.1300     0.0000    -0.4260 cd         1 4YW       0.416800
     12 N6           2.0600     0.0000     1.1360 nb         1 4YW      -0.683000
     13 N10         -2.0210     0.0110     0.9330 na         1 4YW      -0.152300
     14 N14          2.2140     0.0010     3.4820 nu         1 4YW      -0.862600
     15 C15          3.5950     0.1110     3.4070 ca         1 4YW       0.736200
     16 C16          4.3770    -0.0030     4.5580 ca         1 4YW      -0.470600
     17 C17          5.7480     0.1120     4.4350 ca         1 4YW       0.504200
     18 N18          6.2770     0.3260     3.2400 nb         1 4YW      -0.819000
     19 C19          5.5090     0.4310     2.1650 ca         1 4YW       0.895900
     20 N20          4.1920     0.3210     2.2380 nb         1 4YW      -0.745000
     21 N21          6.1000     0.6560     0.9330 nh         1 4YW      -0.675300
     22 C22          5.5500     1.8590     0.2980 c3         1 4YW       0.185300
     23 C23          6.1170     1.9950    -1.1180 c3         1 4YW      -0.062900
     24 C24          7.6430     2.0860    -1.0440 c3         1 4YW      -0.195900
     25 C25          8.1870     0.8430    -0.3340 c3         1 4YW      -0.062900
     26 C26          7.5600     0.7410     1.0580 c3         1 4YW       0.185300
     27 S27          8.3270     2.1740    -2.7210 s6         1 4YW       1.106000
     28 O28          7.9560     0.9960    -3.4240 o          1 4YW      -0.613800
     29 O29          8.0060     3.4420    -3.2760 o          1 4YW      -0.613800
     30 C30         10.1110     2.1200    -2.4030 c3         1 4YW      -0.231300
     31 H1           1.9330     0.0000    -0.9400 h4         1 4YW       0.041100
     32 H2          -4.0720     0.0940     1.3700 h1         1 4YW       0.071700
     33 H3          -0.4230     0.0080     3.3720 ha         1 4YW       0.130000
     34 H4          -2.5860    -2.0460     2.1520 hc         1 4YW       0.049367
     35 H5          -2.5800    -1.0990     3.6460 hc         1 4YW       0.049367
     36 H6          -4.1150    -1.5920     2.9180 hc         1 4YW       0.049367
     37 H7          -2.3640     1.9740     2.3560 hc         1 4YW       0.049367
     38 H8          -3.9590     1.6330     3.0420 hc         1 4YW       0.049367
     39 H9          -2.5150     0.9010     3.7550 hc         1 4YW       0.049367
     40 H10         -3.9940     0.8920    -0.9410 hc         1 4YW       0.058367
     41 H11         -3.2280    -0.0180    -2.2500 hc         1 4YW       0.058367
     42 H12         -4.0080    -0.8760    -0.9140 hc         1 4YW       0.058367
     43 H13          1.7680    -0.1040     4.3720 hn         1 4YW       0.463800
     44 H14          3.9200    -0.1780     5.5240 ha         1 4YW       0.138000
     45 H15          6.3850     0.0280     5.3080 h4         1 4YW       0.026100
     46 H16          4.4710     1.7770     0.2470 h1         1 4YW       0.058950
     47 H17          5.8240     2.7300     0.8800 h1         1 4YW       0.058950
     48 H18          5.7240     2.8930    -1.5790 hc         1 4YW       0.065450
     49 H19          5.8360     1.1280    -1.7040 hc         1 4YW       0.065450
     50 H20          7.9240     2.9710    -0.4860 h1         1 4YW       0.097700
     51 H21          7.9350    -0.0400    -0.9090 hc         1 4YW       0.065450
     52 H22          9.2640     0.9240    -0.2400 hc         1 4YW       0.065450
     53 H23          7.8210     1.6200     1.6350 h1         1 4YW       0.058950
     54 H24          7.9310    -0.1470     1.5550 h1         1 4YW       0.058950
     55 H25         10.3360     2.6860    -1.5070 h1         1 4YW       0.097033
     56 H26         10.6420     2.5490    -3.2440 h1         1 4YW       0.097033
     57 H27         10.4230     1.0910    -2.2670 h1         1 4YW       0.097033
@<TRIPOS>BOND
     1    29    27 2   
     2    23    22 1   
     3    23    24 1   
     4    22    21 1   
     5    27    30 1   
     6    27    24 1   
     7    27    28 2   
     8    24    25 1   
     9    18    17 ar  
    10    18    19 ar  
    11    17    16 ar  
    12    21    19 1   
    13    21    26 1   
    14    19    20 ar  
    15    16    15 ar  
    16    25    26 1   
    17    20    15 ar  
    18    15    14 1   
    19    14     4 1   
    20     4     5 ar  
    21     4    12 ar  
    22     5     6 ar  
    23     7     3 1   
    24     3     8 1   
    25     3    13 1   
    26    12     2 ar  
    27     6    13 1   
    28     6     1 ar  
    29    13    11 1   
    30     2     1 ar  
    31     1     9 1   
    32    11     9 2   
    33    11    10 1   
    34     2    31 1   
    35     3    32 1   
    36     5    33 1   
    37     7    34 1   
    38     7    35 1   
    39     7    36 1   
    40     8    37 1   
    41     8    38 1   
    42     8    39 1   
    43    10    40 1   
    44    10    41 1   
    45    10    42 1   
    46    14    43 1   
    47    16    44 1   
    48    17    45 1   
    49    22    46 1   
    50    22    47 1   
    51    23    48 1   
    52    23    49 1   
    53    24    50 1   
    54    25    51 1   
    55    25    52 1   
    56    26    53 1   
    57    26    54 1   
    58    30    55 1   
    59    30    56 1   
    60    30    57 1   
@<TRIPOS>SUBSTRUCTURE
     1 4YW         1 TEMP              0 ****  ****    0 ROOT
