@<TRIPOS>MOLECULE
molecule
   64    67     1     0     0
SMALL
bcc


@<TRIPOS>ATOM
      1 C4           0.0000     0.0000     0.0000 ca         1 4YX      -0.061900
      2 C5           1.3940     0.0000     0.0000 ca         1 4YX       0.500200
      3 C11         -3.1260     0.0200     1.8940 c3         1 4YX       0.050000
      4 C7           1.4510     0.0020     2.3150 ca         1 4YX       0.672200
      5 C8           0.0670     0.0100     2.4060 ca         1 4YX      -0.301300
      6 C9          -0.6790     0.0080     1.2350 ca         1 4YX      -0.034200
      7 C12         -3.0620    -1.2410     2.7580 c3         1 4YX      -0.109100
      8 C13         -3.0160     1.2570     2.7880 c3         1 4YX      -0.109100
      9 N3          -0.9500    -0.0000    -0.9700 nc         1 4YX      -0.596100
     10 C1          -3.4320    -0.0000    -1.1850 c3         1 4YX      -0.097400
     11 C2          -2.1310     0.0000    -0.4250 cd         1 4YX       0.426800
     12 N6           2.0600     0.0000     1.1370 nb         1 4YX      -0.691000
     13 N10         -2.0210     0.0120     0.9340 na         1 4YX      -0.148300
     14 N14          2.2130     0.0040     3.4820 nu         1 4YX      -0.859600
     15 C15          3.5940     0.1190     3.4080 ca         1 4YX       0.739200
     16 C16          4.3780    -0.0000     4.5560 ca         1 4YX      -0.457600
     17 C17          5.7490     0.1210     4.4340 ca         1 4YX       0.508200
     18 N18          6.2760     0.3450     3.2400 nb         1 4YX      -0.820000
     19 C19          5.5080     0.4530     2.1650 ca         1 4YX       0.888900
     20 N20          4.1900     0.3380     2.2390 nb         1 4YX      -0.748000
     21 N21          6.0970     0.6870     0.9360 nh         1 4YX      -0.683300
     22 C22          5.5420     1.8940     0.3080 c3         1 4YX       0.182800
     23 C23          6.1070     2.0400    -1.1070 c3         1 4YX      -0.088400
     24 C24          7.6340     2.1360    -1.0330 c3         1 4YX       0.149800
     25 C25          8.1830     0.8900    -0.3320 c3         1 4YX      -0.088400
     26 C26          7.5570     0.7770     1.0600 c3         1 4YX       0.182800
     27 C27          8.2100     2.2210    -2.4490 c3         1 4YX      -0.142400
     28 C28          7.6760     3.4770    -3.1410 c3         1 4YX       0.091800
     29 N29          8.1730     3.5220    -4.5230 nz         1 4YX      -0.812600
     30 O30          8.0040     3.3030    -0.2970 os         1 4YX      -0.415600
     31 C31          9.4140     3.5300    -0.2370 c3         1 4YX       0.113700
     32 H1           1.9330    -0.0020    -0.9400 h4         1 4YX       0.029100
     33 H2          -4.0740     0.0500     1.3690 h1         1 4YX       0.074700
     34 H3          -0.4230     0.0120     3.3720 ha         1 4YX       0.135000
     35 H4          -2.4480    -1.0510     3.6300 hc         1 4YX       0.050367
     36 H5          -4.0610    -1.5150     3.0730 hc         1 4YX       0.050367
     37 H6          -2.6300    -2.0510     2.1830 hc         1 4YX       0.050367
     38 H7          -4.0060     1.5710     3.0950 hc         1 4YX       0.050367
     39 H8          -2.4250     1.0190     3.6640 hc         1 4YX       0.050367
     40 H9          -2.5380     2.0590     2.2370 hc         1 4YX       0.050367
     41 H10         -3.9920     0.8950    -0.9420 hc         1 4YX       0.061700
     42 H11         -3.2290    -0.0210    -2.2490 hc         1 4YX       0.061700
     43 H12         -4.0100    -0.8740    -0.9110 hc         1 4YX       0.061700
     44 H13          1.7680    -0.1050     4.3710 hn         1 4YX       0.468800
     45 H14          3.9220    -0.1830     5.5220 ha         1 4YX       0.146000
     46 H15          6.3860     0.0350     5.3060 h4         1 4YX       0.033100
     47 H16          5.8140     2.7620     0.8950 h1         1 4YX       0.072700
     48 H17          4.4630     1.8090     0.2570 h1         1 4YX       0.072700
     49 H18          5.7100     2.9390    -1.5630 hc         1 4YX       0.057700
     50 H19          5.8290     1.1750    -1.6970 hc         1 4YX       0.057700
     51 H20          9.2590     0.9740    -0.2380 hc         1 4YX       0.057700
     52 H21          7.9320     0.0110    -0.9120 hc         1 4YX       0.057700
     53 H22          7.8150     1.6540     1.6420 h1         1 4YX       0.072700
     54 H23          7.9320    -0.1120     1.5510 h1         1 4YX       0.072700
     55 H24          7.9140     1.3450    -3.0130 hc         1 4YX       0.068700
     56 H25          9.2910     2.2700    -2.3970 hc         1 4YX       0.068700
     57 H26          8.0150     4.3560    -2.6070 hx         1 4YX       0.121200
     58 H27          6.5930     3.4540    -3.1480 hx         1 4YX       0.121200
     59 H28          9.1730     3.4840    -4.5190 hn         1 4YX       0.454800
     60 H29          7.8110     2.7410    -5.0330 hn         1 4YX       0.454800
     61 H31          9.7130     3.6740     0.7950 h1         1 4YX       0.039700
     62 H32          9.6620     4.4140    -0.8110 h1         1 4YX       0.039700
     63 H33          9.9360     2.6740    -0.6480 h1         1 4YX       0.039700
     64 H293         7.8940     4.3830    -4.9500 hn         1 4YX       0.454800
@<TRIPOS>BOND
     1    28    29 1
     2    28    27 1
     3    23    22 1
     4    23    24 1
     5    22    21 1
     6    30    24 1
     7    30    31 1
     8    24    27 1
     9    24    25 1
    10    18    17 ar
    11    18    19 ar
    12    17    16 ar
    13    21    19 1
    14    21    26 1
    15    19    20 ar
    16    26    25 1
    17    16    15 ar
    18    20    15 ar
    19    15    14 1
    20    14     4 1
    21     4     5 ar
    22     4    12 ar
    23     5     6 ar
    24     7     3 1
    25     3     8 1
    26     3    13 1
    27    12     2 ar
    28     6    13 1
    29     6     1 ar
    30    13    11 1
    31     2     1 ar
    32     1     9 1
    33    11     9 2
    34    11    10 1
    35     2    32 1
    36     3    33 1
    37     5    34 1
    38     7    35 1
    39     7    36 1
    40     7    37 1
    41     8    38 1
    42     8    39 1
    43     8    40 1
    44    10    41 1
    45    10    42 1
    46    10    43 1
    47    14    44 1
    48    16    45 1
    49    17    46 1
    50    22    47 1
    51    22    48 1
    52    23    49 1
    53    23    50 1
    54    25    51 1
    55    25    52 1
    56    26    53 1
    57    26    54 1
    58    27    55 1
    59    27    56 1
    60    28    57 1
    61    28    58 1
    62    29    59 1
    63    29    60 1
    64    31    61 1
    65    31    62 1
    66    31    63 1
    67    64    29 1
@<TRIPOS>SUBSTRUCTURE
     1 4YX         1 TEMP              0 ****  ****    0 ROOT
