@<TRIPOS>MOLECULE
molecule
   69    72     1     0     0
SMALL
bcc


@<TRIPOS>ATOM
      1 CAO          0.0000     0.0000     0.0000 cx         1 4YY      -0.117900
      2 CAP          1.5300     0.0000     0.0000 cx         1 4YY      -0.117900
      3 CBJ          0.7640     0.0000     1.3250 cx         1 4YY       0.007300
      4 FAI          0.7630    -1.1840     2.0710 f          1 4YY      -0.208300
      5 CAY          0.7640     1.2740     2.1300 c          1 4YY       0.686100
      6 OAF          1.1970     2.2980     1.6430 o          1 4YY      -0.614100
      7 NAV          0.2830     1.2770     3.3880 ns         1 4YY      -0.552900
      8 CBG          0.2830     2.5170     4.1700 c3         1 4YY       0.061700
      9 CBI         -0.9750     3.3250     3.8440 c3         1 4YY      -0.072000
     10 CAD         -2.2150     2.4620     4.0920 c3         1 4YY      -0.090433
     11 CAB         -1.0290     4.5650     4.7380 c3         1 4YY      -0.090433
     12 CAC         -0.9380     3.7550     2.3760 c3         1 4YY      -0.090433
     13 CAZ          0.2990     2.1840     5.6400 c          1 4YY       0.691100
     14 OAG         -0.2270     1.1650     6.0370 o          1 4YY      -0.597100
     15 N            0.8980     3.0170     6.5130 n          1 4YY      -0.468800
     16 CD2          1.6510     4.2350     6.1610 c3         1 4YY       0.080000
     17 CG           2.6140     4.4640     7.3520 c3         1 4YY       0.129100
     18 OD1          3.7710     3.6340     7.2420 oh         1 4YY      -0.588800
     19 CB           1.7310     4.0340     8.5530 c3         1 4YY      -0.105400
     20 CA           0.9030     2.8670     7.9760 c3         1 4YY       0.048700
     21 C           -0.5050     2.9240     8.5090 c          1 4YY       0.647100
     22 O           -1.4370     3.0670     7.7460 o          1 4YY      -0.591100
     23 NAU         -0.7280     2.8180     9.8340 ns         1 4YY      -0.585900
     24 CAQ         -2.0970     2.8740    10.3520 c3         1 4YY       0.160300
     25 CBB         -2.0730     2.7320    11.8520 ca         1 4YY      -0.115300
     26 CAJ         -1.9700     3.8590    12.6490 ca         1 4YY      -0.112000
     27 CAL         -1.9470     3.7360    14.0220 ca         1 4YY      -0.116500
     28 CAK         -2.1580     1.4780    12.4270 ca         1 4YY      -0.112000
     29 CAM         -2.1370     1.3410    13.8000 ca         1 4YY      -0.116500
     30 CBC         -2.0280     2.4730    14.6090 ca         1 4YY       0.004000
     31 CBD         -2.0030     2.3340    16.0810 cc         1 4YY      -0.104400
     32 SAW         -2.9510     3.2780    17.2290 ss         1 4YY      -0.200300
     33 CAN         -2.2500     2.4170    18.5290 cd         1 4YY       0.441300
     34 NAT         -1.4130     1.5390    18.0870 nc         1 4YY      -0.675000
     35 CBA         -1.2560     1.4570    16.7850 cc         1 4YY       0.382600
     36 CAA         -0.3120     0.4790    16.1340 c3         1 4YY      -0.117400
     37 H1          -0.4670    -0.9390    -0.2700 hc         1 4YY       0.093950
     38 H2          -0.4670     0.9390    -0.2700 hc         1 4YY       0.093950
     39 H3           1.9980     0.9390    -0.2700 hc         1 4YY       0.093950
     40 H4           1.9980    -0.9390    -0.2700 hc         1 4YY       0.093950
     41 H5          -0.0370     0.4250     3.8030 hn         1 4YY       0.347500
     42 H6           1.1610     3.1000     3.9230 h1         1 4YY       0.082700
     43 H7          -2.2310     2.1430     5.1270 hc         1 4YY       0.043367
     44 H8          -2.1850     1.5930     3.4460 hc         1 4YY       0.043367
     45 H9          -3.1050     3.0400     3.8780 hc         1 4YY       0.043367
     46 H10         -0.1500     5.1740     4.5650 hc         1 4YY       0.043367
     47 H11         -1.9180     5.1390     4.5050 hc         1 4YY       0.043367
     48 H12         -1.0590     4.2600     5.7770 hc         1 4YY       0.043367
     49 H13         -1.1580     2.9030     1.7450 hc         1 4YY       0.043367
     50 H14         -1.6780     4.5290     2.2090 hc         1 4YY       0.043367
     51 H15          0.0460     4.1380     2.1360 hc         1 4YY       0.043367
     52 H16          2.2130     4.0780     5.2480 h1         1 4YY       0.065700
     53 H17          0.9760     5.0760     6.0560 h1         1 4YY       0.065700
     54 H18          2.8860     5.5100     7.4300 h1         1 4YY       0.050700
     55 H19          4.5470     4.1650     7.3140 ho         1 4YY       0.406000
     56 H20          1.0840     4.8460     8.8600 hc         1 4YY       0.066700
     57 H21          2.3480     3.6940     9.3760 hc         1 4YY       0.066700
     58 H22          1.3640     1.9240     8.2440 h1         1 4YY       0.088700
     59 H23          0.0370     2.6630    10.4590 hn         1 4YY       0.316500
     60 H24         -2.5460     3.8240    10.0870 h1         1 4YY       0.061700
     61 H25         -2.6790     2.0680     9.9230 h1         1 4YY       0.061700
     62 H26         -1.9070     4.8400    12.1930 ha         1 4YY       0.139000
     63 H27         -1.8640     4.6190    14.6450 ha         1 4YY       0.140500
     64 H28         -2.2430     0.6000    11.7980 ha         1 4YY       0.139000
     65 H29         -2.2020     0.3570    14.2480 ha         1 4YY       0.140500
     66 H30         -2.4750     2.5850    19.5750 h5         1 4YY       0.062100
     67 H31          0.3730     0.0890    16.8780 hc         1 4YY       0.052367
     68 H32          0.2490     0.9810    15.3560 hc         1 4YY       0.052367
     69 H33         -0.8780    -0.3370    15.7020 hc         1 4YY       0.052367
@<TRIPOS>BOND
     1    34    33 2
     2    34    35 1
     3    33    32 1
     4    36    35 1
     5    35    31 2
     6    32    31 1
     7    31    30 1
     8    30    27 ar
     9    30    29 ar
    10    27    26 ar
    11    29    28 ar
    12    26    25 ar
    13    28    25 ar
    14    25    24 1
    15    24    23 1
    16    23    21 1
    17    19    20 1
    18    19    17 1
    19    21    22 2
    20    21    20 1
    21    20    15 1
    22    17    18 1
    23    17    16 1
    24    15    16 1
    25    15    13 1
    26    14    13 2
    27    13     8 1
    28    11     9 1
    29     8     9 1
    30     8     7 1
    31    12     9 1
    32     9    10 1
    33     7     5 1
    34     5     6 2
    35     5     3 1
    36     4     3 1
    37     3     2 1
    38     3     1 1
    39     2     1 1
    40     1    37 1
    41     1    38 1
    42     2    39 1
    43     2    40 1
    44     7    41 1
    45     8    42 1
    46    10    43 1
    47    10    44 1
    48    10    45 1
    49    11    46 1
    50    11    47 1
    51    11    48 1
    52    12    49 1
    53    12    50 1
    54    12    51 1
    55    16    52 1
    56    16    53 1
    57    17    54 1
    58    18    55 1
    59    19    56 1
    60    19    57 1
    61    20    58 1
    62    23    59 1
    63    24    60 1
    64    24    61 1
    65    26    62 1
    66    27    63 1
    67    28    64 1
    68    29    65 1
    69    33    66 1
    70    36    67 1
    71    36    68 1
    72    36    69 1
@<TRIPOS>SUBSTRUCTURE
     1 4YY         1 TEMP              0 ****  ****    0 ROOT
