@<TRIPOS>MOLECULE
4YY
   69    72     1     0     0
SMALL
bcc


@<TRIPOS>ATOM
      1 CAO          0.0000     0.0000     0.0000 cx         1 4YY      -0.058400
      2 CAP          1.5300     0.0000     0.0000 cx         1 4YY      -0.058400
      3 CBJ          0.7640     0.0000     1.3250 cx         1 4YY      -0.010700
      4 FAI          0.7630    -1.1840     2.0710 f          1 4YY      -0.197300
      5 CAY          0.7640     1.2740     2.1300 c          1 4YY       0.600100
      6 OAF          1.1970     2.2980     1.6430 o          1 4YY      -0.657100
      7 NAV          0.2830     1.2770     3.3880 ns         1 4YY      -0.146900
      8 CBG          0.2830     2.5170     4.1700 c3         1 4YY      -0.052300
      9 CBI         -0.9750     3.3250     3.8440 c3         1 4YY      -0.064000
     10 CAD         -2.2150     2.4620     4.0920 c3         1 4YY      -0.021100
     11 CAB         -1.0290     4.5650     4.7380 c3         1 4YY      -0.021100
     12 CAC         -0.9380     3.7550     2.3760 c3         1 4YY      -0.021100
     13 CAZ          0.2990     2.1840     5.6400 c          1 4YY       0.615100
     14 OAG         -0.2270     1.1650     6.0370 o          1 4YY      -0.638100
     15 N            0.8980     3.0170     6.5130 n          1 4YY      -0.115800
     16 CD2          1.6510     4.2350     6.1610 c3         1 4YY       0.004000
     17 CG           2.6140     4.4640     7.3520 c3         1 4YY       0.183100
     18 OD1          3.7710     3.6340     7.2420 oh         1 4YY      -0.571800
     19 CB           1.7310     4.0340     8.5530 c3         1 4YY      -0.052400
     20 CA           0.9030     2.8670     7.9760 c3         1 4YY      -0.033300
     21 C           -0.5050     2.9240     8.5090 c          1 4YY       0.562100
     22 O           -1.4370     3.0670     7.7460 o          1 4YY      -0.632100
     23 NAU         -0.7280     2.8180     9.8340 ns         1 4YY      -0.193900
     24 CAQ         -2.0970     2.8740    10.3520 c3         1 4YY       0.110300
     25 CBB         -2.0730     2.7320    11.8520 ca         1 4YY      -0.124300
     26 CAJ         -1.9700     3.8590    12.6490 ca         1 4YY      -0.082000
     27 CAL         -1.9470     3.7360    14.0220 ca         1 4YY      -0.093000
     28 CAK         -2.1580     1.4780    12.4270 ca         1 4YY      -0.082000
     29 CAM         -2.1370     1.3410    13.8000 ca         1 4YY      -0.093000
     30 CBC         -2.0280     2.4730    14.6090 ca         1 4YY       0.014000
     31 CBD         -2.0030     2.3340    16.0810 cc         1 4YY      -0.055400
     32 SAW         -2.9510     3.2780    17.2290 ss         1 4YY      -0.303300
     33 CAN         -2.2500     2.4170    18.5290 cc         1 4YY       0.464300
     34 NAT         -1.4130     1.5390    18.0870 nd         1 4YY      -0.550000
     35 CBA         -1.2560     1.4570    16.7850 cd         1 4YY       0.330600
     36 CAA         -0.3120     0.4790    16.1340 c3         1 4YY      -0.020400
     37 H1          -0.4670    -0.9390    -0.2700 hc         1 4YY       0.061450
     38 H2          -0.4670     0.9390    -0.2700 hc         1 4YY       0.061450
     39 H3           1.9980     0.9390    -0.2700 hc         1 4YY       0.061450
     40 H4           1.9980    -0.9390    -0.2700 hc         1 4YY       0.061450
     41 H5          -0.0370     0.4250     3.8030 hn         1 4YY       0.207500
     42 H6           1.1610     3.1000     3.9230 h1         1 4YY       0.063700
     43 H7          -2.2310     2.1430     5.1270 hc         1 4YY       0.017589
     44 H8          -2.1850     1.5930     3.4460 hc         1 4YY       0.017589
     45 H9          -3.1050     3.0400     3.8780 hc         1 4YY       0.017589
     46 H10         -0.1500     5.1740     4.5650 hc         1 4YY       0.017589
     47 H11         -1.9180     5.1390     4.5050 hc         1 4YY       0.017589
     48 H12         -1.0590     4.2600     5.7770 hc         1 4YY       0.017589
     49 H13         -1.1580     2.9030     1.7450 hc         1 4YY       0.017589
     50 H14         -1.6780     4.5290     2.2090 hc         1 4YY       0.017589
     51 H15          0.0460     4.1380     2.1360 hc         1 4YY       0.017589
     52 H16          2.2130     4.0780     5.2480 h1         1 4YY       0.042700
     53 H17          0.9760     5.0760     6.0560 h1         1 4YY       0.042700
     54 H18          2.8860     5.5100     7.4300 h1         1 4YY       0.013700
     55 H19          4.5470     4.1650     7.3140 ho         1 4YY       0.394000
     56 H20          1.0840     4.8460     8.8600 hc         1 4YY       0.034700
     57 H21          2.3480     3.6940     9.3760 hc         1 4YY       0.034700
     58 H22          1.3640     1.9240     8.2440 h1         1 4YY       0.055700
     59 H23          0.0370     2.6630    10.4590 hn         1 4YY       0.176500
     60 H24         -2.5460     3.8240    10.0870 h1         1 4YY       0.032200
     61 H25         -2.6790     2.0680     9.9230 h1         1 4YY       0.032200
     62 H26         -1.9070     4.8400    12.1930 ha         1 4YY       0.111000
     63 H27         -1.8640     4.6190    14.6450 ha         1 4YY       0.117000
     64 H28         -2.2430     0.6000    11.7980 ha         1 4YY       0.111000
     65 H29         -2.2020     0.3570    14.2480 ha         1 4YY       0.117000
     66 H30         -2.4750     2.5850    19.5750 h5         1 4YY       0.026100
     67 H31          0.3730     0.0890    16.8780 hc         1 4YY       0.016033
     68 H32          0.2490     0.9810    15.3560 hc         1 4YY       0.016033
     69 H33         -0.8780    -0.3370    15.7020 hc         1 4YY       0.016033
@<TRIPOS>BOND
     1     1     2 1   
     2     1     3 1   
     3     1    37 1   
     4     1    38 1   
     5     2     3 1   
     6     2    39 1   
     7     2    40 1   
     8     3     4 1   
     9     3     5 1   
    10     5     6 2   
    11     5     7 1   
    12     7     8 1   
    13     7    41 1   
    14     8     9 1   
    15     8    13 1   
    16     8    42 1   
    17     9    10 1   
    18     9    11 1   
    19     9    12 1   
    20    10    43 1   
    21    10    44 1   
    22    10    45 1   
    23    11    46 1   
    24    11    47 1   
    25    11    48 1   
    26    12    49 1   
    27    12    50 1   
    28    12    51 1   
    29    13    14 2   
    30    13    15 1   
    31    15    16 1   
    32    15    20 1   
    33    16    17 1   
    34    16    52 1   
    35    16    53 1   
    36    17    18 1   
    37    17    19 1   
    38    17    54 1   
    39    18    55 1   
    40    19    20 1   
    41    19    56 1   
    42    19    57 1   
    43    20    21 1   
    44    20    58 1   
    45    21    22 2   
    46    21    23 1   
    47    23    24 1   
    48    23    59 1   
    49    24    25 1   
    50    24    60 1   
    51    24    61 1   
    52    25    26 ar  
    53    25    28 ar  
    54    26    27 ar  
    55    26    62 1   
    56    27    30 ar  
    57    27    63 1   
    58    28    29 ar  
    59    28    64 1   
    60    29    30 ar  
    61    29    65 1   
    62    30    31 1   
    63    31    32 1   
    64    31    35 2   
    65    32    33 1   
    66    33    34 2   
    67    33    66 1   
    68    34    35 1   
    69    35    36 1   
    70    36    67 1   
    71    36    68 1   
    72    36    69 1   
@<TRIPOS>SUBSTRUCTURE
     1 4YY         1 TEMP              0 ****  ****    0 ROOT
