@<TRIPOS>MOLECULE
molecule
   21    21     1     0     0
SMALL
bcc


@<TRIPOS>ATOM
      1 C10          0.0000     0.0000     0.0000 ca         1 4YZ       0.001400
      2 C13         -0.0080    -0.0010     2.3950 ca         1 4YZ      -0.131000
      3 O01          6.6180    -0.0000     3.0140 o          1 4YZ      -0.844800
      4 C02          6.3450     0.0010     4.1900 c          1 4YZ       0.896600
      5 O03          7.3250     0.0000     5.1070 o          1 4YZ      -0.844800
      6 C04          4.9030    -0.0000     4.6290 c3         1 4YZ      -0.175400
      7 C05          3.9950    -0.0000     3.3970 c3         1 4YZ       0.038700
      8 S06          2.2600    -0.0010     3.9250 ss         1 4YZ      -0.308000
      9 C07          1.3810    -0.0010     2.3990 ca         1 4YZ       0.062900
     10 C08          2.0760     0.0000     1.1950 ca         1 4YZ      -0.131000
     11 C09          1.3830     0.0000     0.0000 ca         1 4YZ      -0.112000
     12 Cl11        -0.8660    -0.0060    -1.5050 cl         1 4YZ      -0.142400
     13 C12         -0.6950    -0.0010     1.1970 ca         1 4YZ      -0.112000
     14 H1          -0.5830    -0.0030     3.3130 ha         1 4YZ       0.151000
     15 H3           4.7060     0.8840     5.2230 hc         1 4YZ       0.043700
     16 H4           4.7070    -0.8850     5.2220 hc         1 4YZ       0.043700
     17 H5           4.1920     0.8850     2.8040 h1         1 4YZ       0.071200
     18 H6           4.1920    -0.8850     2.8030 h1         1 4YZ       0.071200
     19 H7           3.1580     0.0500     1.1940 ha         1 4YZ       0.151000
     20 H8           1.9240     0.0000    -0.9390 ha         1 4YZ       0.135500
     21 H9          -1.7790    -0.0040     1.1930 ha         1 4YZ       0.135500
@<TRIPOS>BOND
     1    12     1 1
     2    11     1 ar
     3    11    10 ar
     4     1    13 ar
     5    10     9 ar
     6    13     2 ar
     7     3     4 1
     8     9     2 ar
     9     9     8 1
    10     4     5 1
    11     4     6 1
    12     7     6 1
    13     7     8 1
    14     2    14 1
    15     6    15 1
    16     6    16 1
    17     7    17 1
    18     7    18 1
    19    10    19 1
    20    11    20 1
    21    13    21 1
@<TRIPOS>SUBSTRUCTURE
     1 4YZ         1 TEMP              0 ****  ****    0 ROOT
