@<TRIPOS>MOLECULE
molecule
   20    20     1     0     0
SMALL
bcc


@<TRIPOS>ATOM
      1 C13          0.0000     0.0000     0.0000 cc         1 4Z0      -0.179000
      2 O01          4.1620    -0.0020     0.6630 o          1 4Z0      -0.530000
      3 C02          3.3450    -0.0020     1.5640 c          1 4Z0       0.671700
      4 O03          3.7590    -0.0010     2.8490 os         1 4Z0      -0.327200
      5 C04          5.0890    -0.0020     3.0640 c2         1 4Z0       0.006100
      6 C05          5.5700    -0.0020     4.3280 ce         1 4Z0      -0.238200
      7 C06          6.9630    -0.0030     4.5530 c          1 4Z0       0.467300
      8 C07          7.4940    -0.0030     5.9470 c          1 4Z0       0.813600
      9 O08          6.7280    -0.0020     6.8870 o          1 4Z0      -0.813300
     10 O09          8.8220    -0.0040     6.1610 o          1 4Z0      -0.813300
     11 O10          7.7310    -0.0040     3.6090 o          1 4Z0      -0.552100
     12 C11          1.9150     0.0000     1.2560 cd         1 4Z0      -0.098700
     13 C12          1.3730     0.0000     0.0000 cc         1 4Z0      -0.088000
     14 C14         -0.5680     0.0050     1.2130 cd         1 4Z0      -0.116100
     15 S15          0.6160     0.0110     2.4410 ss         1 4Z0      -0.015800
     16 H1          -0.5810    -0.0020    -0.9140 ha         1 4Z0       0.145000
     17 H2           5.7730    -0.0030     2.2240 h4         1 4Z0       0.176000
     18 H4           4.8860    -0.0010     5.1680 ha         1 4Z0       0.156000
     19 H7           1.9690    -0.0040    -0.9050 ha         1 4Z0       0.168000
     20 H8          -1.6360     0.0080     1.3910 h4         1 4Z0       0.167000
@<TRIPOS>BOND
     1    14    15 1   
     2    14     1 2   
     3    15    12 1   
     4     1    13 1   
     5    11     7 2   
     6    13    12 2   
     7    12     3 1   
     8     3     4 1   
     9     3     2 2   
    10     7     6 1   
    11     7     8 1   
    12     4     5 1   
    13     9     8 1   
    14     6     5 2   
    15     8    10 1   
    16     1    16 1   
    17     5    17 1   
    18     6    18 1   
    19    13    19 1   
    20    14    20 1   
@<TRIPOS>SUBSTRUCTURE
     1 4Z0         1 TEMP              0 ****  ****    0 ROOT
