@<TRIPOS>MOLECULE
4Z1
   20    20     1     0     0
SMALL
bcc


@<TRIPOS>ATOM
      1 C10          0.0000     0.0000     0.0000 ca         1 4Z1      -0.035000
      2 C13         -0.0070     0.0000     2.3980 ca         1 4Z1      -0.041000
      3 O01          5.6690    -0.0010    -2.3470 o          1 4Z1      -0.856300
      4 C02          6.2740    -0.0000    -1.2950 c          1 4Z1       0.925600
      5 O03          7.6190    -0.0000    -1.2920 o          1 4Z1      -0.856300
      6 C04          5.5230    -0.0000    -0.0020 c          1 4Z1       0.487100
      7 O05          6.1280     0.0010     1.0500 o          1 4Z1      -0.655100
      8 N06          4.1760    -0.0000    -0.0050 ns         1 4Z1      -0.180300
      9 N07          3.4730    -0.0000     1.2060 nu         1 4Z1      -0.246600
     10 C08          2.0750     0.0000     1.2030 ca         1 4Z1       0.080600
     11 C09          1.3810     0.0000     0.0000 ca         1 4Z1      -0.193000
     12 C11         -0.6940     0.0000     1.1970 ca         1 4Z1      -0.109600
     13 Cl12        -2.4300     0.0000     1.1920 cl         1 4Z1      -0.064400
     14 C14          1.3750     0.0000     2.4040 ca         1 4Z1      -0.129600
     15 Cl15         2.2370     0.0000     3.9120 cl         1 4Z1      -0.032400
     16 H1          -0.5410    -0.0000    -0.9390 ha         1 4Z1       0.106000
     17 H2          -0.5520     0.0000     3.3340 ha         1 4Z1       0.112000
     18 H4           3.6780     0.0020    -0.8730 hn         1 4Z1       0.224500
     19 H5           3.9710    -0.0150     2.0740 hn         1 4Z1       0.335800
     20 H6           1.9230    -0.0000    -0.9380 ha         1 4Z1       0.131000
@<TRIPOS>BOND
     1     1    11 ar  
     2     1    12 ar  
     3     1    16 1   
     4     2    12 ar  
     5     2    14 ar  
     6     2    17 1   
     7     3     4 1   
     8     4     5 1   
     9     4     6 1   
    10     6     7 2   
    11     6     8 1   
    12     8     9 1   
    13     8    18 1   
    14     9    10 1   
    15     9    19 1   
    16    10    11 ar  
    17    10    14 ar  
    18    11    20 1   
    19    12    13 1   
    20    14    15 1   
@<TRIPOS>SUBSTRUCTURE
     1 4Z1         1 TEMP              0 ****  ****    0 ROOT
