@<TRIPOS>MOLECULE
molecule
   20    20     1     0     0
SMALL
bcc


@<TRIPOS>ATOM
      1 C10          0.0000     0.0000     0.0000 ca         1 4Z1      -0.064000
      2 C13         -0.0070     0.0000     2.3980 ca         1 4Z1      -0.062000
      3 O01          5.6690    -0.0010    -2.3470 o          1 4Z1      -0.797300
      4 C02          6.2740    -0.0000    -1.2950 c          1 4Z1       0.842600
      5 O03          7.6190    -0.0000    -1.2920 o          1 4Z1      -0.797300
      6 C04          5.5230    -0.0000    -0.0020 c          1 4Z1       0.558100
      7 O05          6.1280     0.0010     1.0500 o          1 4Z1      -0.622100
      8 N06          4.1760    -0.0000    -0.0050 ns         1 4Z1      -0.420300
      9 N07          3.4730    -0.0000     1.2060 nu         1 4Z1      -0.558600
     10 C08          2.0750     0.0000     1.2030 ca         1 4Z1       0.227600
     11 C09          1.3810     0.0000     0.0000 ca         1 4Z1      -0.209000
     12 C11         -0.6940     0.0000     1.1970 ca         1 4Z1      -0.052600
     13 Cl12        -2.4300     0.0000     1.1920 cl         1 4Z1      -0.138400
     14 C14          1.3750     0.0000     2.4040 ca         1 4Z1      -0.070600
     15 Cl15         2.2370     0.0000     3.9120 cl         1 4Z1      -0.117400
     16 H1          -0.5410    -0.0000    -0.9390 ha         1 4Z1       0.138000
     17 H2          -0.5520     0.0000     3.3340 ha         1 4Z1       0.144000
     18 H4           3.6780     0.0020    -0.8730 hn         1 4Z1       0.353500
     19 H5           3.9710    -0.0150     2.0740 hn         1 4Z1       0.493800
     20 H6           1.9230    -0.0000    -0.9380 ha         1 4Z1       0.153000
@<TRIPOS>BOND
     1    13    12 1   
     2     1    12 ar  
     3     1    11 ar  
     4    12     2 ar  
     5    11    10 ar  
     6     7     6 2   
     7     2    14 ar  
     8     8     6 1   
     9     8     9 1   
    10    10    14 ar  
    11    10     9 1   
    12     6     4 1   
    13     3     4 1   
    14    14    15 1   
    15     4     5 1   
    16     1    16 1   
    17     2    17 1   
    18     8    18 1   
    19     9    19 1   
    20    11    20 1   
@<TRIPOS>SUBSTRUCTURE
     1 4Z1         1 TEMP              0 ****  ****    0 ROOT
