@<TRIPOS>MOLECULE
molecule
   56    59     1     0     0
SMALL
bcc


@<TRIPOS>ATOM
      1 CAL          0.0000     0.0000     0.0000 cy         1 4Z2      -0.113900
      2 CAM          1.5380     0.0000     0.0000 cy         1 4Z2      -0.103400
      3 CAN          1.4600     0.0000     1.5350 cy         1 4Z2      -0.113900
      4 CAK          0.0760     0.6590     1.3870 cy         1 4Z2       0.217500
      5 NAJ         -0.9190     0.1520     2.3360 nu         1 4Z2      -0.903900
      6 CAI         -2.0030     0.9460     2.6960 ca         1 4Z2       0.699200
      7 CAH         -2.1370     2.2180     2.1480 ca         1 4Z2      -0.263300
      8 NAO         -2.8980     0.4820     3.5530 nb         1 4Z2      -0.755000
      9 CAP         -3.9420     1.1950     3.9260 ca         1 4Z2       0.467200
     10 CAQ         -4.1460     2.4680     3.4340 ca         1 4Z2      -0.304300
     11 CAG         -3.2300     3.0010     2.5190 ca         1 4Z2      -0.067600
     12 CAE         -3.4140     4.3620     1.9630 c          1 4Z2       0.673700
     13 OAF         -2.6080     4.8090     1.1710 o          1 4Z2      -0.606100
     14 NAD         -4.4760     5.1030     2.3340 ns         1 4Z2      -0.574900
     15 CAC         -4.6590     6.4480     1.7850 c3         1 4Z2       0.100000
     16 CAB         -5.9310     7.0680     2.3650 c3         1 4Z2       0.130100
     17 OAA         -7.0560     6.2570     2.0220 oh         1 4Z2      -0.585800
     18 CAR         -6.1220     8.4740     1.7900 c3         1 4Z2       0.153800
     19 NAS         -7.2750     9.1150     2.4370 n3         1 4Z2      -0.717600
     20 CAT         -7.6220    10.3760     1.7640 c3         1 4Z2       0.161800
     21 CAU         -9.0160    10.8050     2.2240 c3         1 4Z2      -0.032100
     22 CAV         -9.0910    10.7790     3.7300 ca         1 4Z2      -0.063300
     23 CBB        -10.1250    11.4610     4.3520 ca         1 4Z2      -0.128000
     24 CBA        -10.2330    11.4600     5.7290 ca         1 4Z2      -0.125000
     25 CAZ         -9.3050    10.7730     6.4900 ca         1 4Z2      -0.130000
     26 CAY         -8.2740    10.0950     5.8710 ca         1 4Z2      -0.127000
     27 CAW         -8.1630    10.0970     4.4890 ca         1 4Z2      -0.077300
     28 CAX         -7.0150     9.3520     3.8590 c3         1 4Z2       0.205100
     29 H1          -0.4240    -0.9970     0.0270 hc         1 4Z2       0.060450
     30 H2          -0.4240     0.6510    -0.7550 hc         1 4Z2       0.060450
     31 H3           1.9620     0.9120    -0.4030 hc         1 4Z2       0.058200
     32 H4           1.9620    -0.9120    -0.4030 hc         1 4Z2       0.058200
     33 H5           2.1920     0.6520     1.9970 hc         1 4Z2       0.060450
     34 H6           1.4120    -0.9970     1.9570 hc         1 4Z2       0.060450
     35 H7           0.1310     1.7390     1.3340 h1         1 4Z2       0.088700
     36 H8          -0.8050    -0.7540     2.7450 hn         1 4Z2       0.452800
     37 H9          -1.4050     2.5930     1.4430 ha         1 4Z2       0.163000
     38 H10         -4.6490     0.7770     4.6320 h4         1 4Z2       0.022100
     39 H11         -5.0080     3.0450     3.7470 ha         1 4Z2       0.128000
     40 H12         -5.1280     4.7430     3.0030 hn         1 4Z2       0.316500
     41 H13         -3.8060     7.0640     2.0450 h1         1 4Z2       0.063200
     42 H14         -4.7450     6.3890     0.7060 h1         1 4Z2       0.063200
     43 H15         -5.8440     7.1280     3.4430 h1         1 4Z2       0.033700
     44 H16         -7.4600     5.9320     2.8090 ho         1 4Z2       0.402000
     45 H17         -6.2970     8.4070     0.7230 h1         1 4Z2       0.048200
     46 H18         -5.2310     9.0630     1.9730 h1         1 4Z2       0.048200
     47 H20         -6.9070    11.1370     2.0510 h1         1 4Z2       0.041200
     48 H21         -7.6400    10.2110     0.6930 h1         1 4Z2       0.041200
     49 H22         -9.1980    11.8180     1.8850 hc         1 4Z2       0.061200
     50 H23         -9.7430    10.1060     1.8280 hc         1 4Z2       0.061200
     51 H24        -10.8520    11.9990     3.7550 ha         1 4Z2       0.130000
     52 H25        -11.0430    11.9930     6.2110 ha         1 4Z2       0.130000
     53 H26         -9.3850    10.7700     7.5700 ha         1 4Z2       0.129000
     54 H27         -7.5480     9.5570     6.4690 ha         1 4Z2       0.126000
     55 H28         -6.1100     9.9390     3.9630 h1         1 4Z2       0.040200
     56 H29         -6.8900     8.4010     4.3620 h1         1 4Z2       0.040200
@<TRIPOS>BOND
     1    13    12 2   
     2     3     4 1   
     3     3     2 1   
     4     7    11 ar  
     5     7     6 ar  
     6    12    11 1   
     7    12    14 1   
     8     5     6 1   
     9     5     4 1   
    10    11    10 ar  
    11     6     8 ar  
    12    15    14 1   
    13    15    16 1   
    14     4     1 1   
    15    17    16 1   
    16    18    16 1   
    17    18    19 1   
    18    20    21 1   
    19    20    19 1   
    20     2     1 1   
    21    21    22 1   
    22    19    28 1   
    23     8     9 ar  
    24    10     9 ar  
    25    22    23 ar  
    26    22    27 ar  
    27    28    27 1   
    28    23    24 ar  
    29    27    26 ar  
    30    24    25 ar  
    31    26    25 ar  
    32     1    29 1   
    33     1    30 1   
    34     2    31 1   
    35     2    32 1   
    36     3    33 1   
    37     3    34 1   
    38     4    35 1   
    39     5    36 1   
    40     7    37 1   
    41     9    38 1   
    42    10    39 1   
    43    14    40 1   
    44    15    41 1   
    45    15    42 1   
    46    16    43 1   
    47    17    44 1   
    48    18    45 1   
    49    18    46 1   
    50    20    47 1   
    51    20    48 1   
    52    21    49 1   
    53    21    50 1   
    54    23    51 1   
    55    24    52 1   
    56    25    53 1   
    57    26    54 1   
    58    28    55 1   
    59    28    56 1   
@<TRIPOS>SUBSTRUCTURE
     1 4Z2         1 TEMP              0 ****  ****    0 ROOT
