@<TRIPOS>MOLECULE
molecule
   20    20     1     0     0
SMALL
bcc


@<TRIPOS>ATOM
      1 C10          0.0000     0.0000     0.0000 ca         1 4Z3      -0.141000
      2 O01          5.7050     1.4460     6.3810 oh         1 4Z3      -0.385500
      3 N02          5.0470     1.3720     5.1290 n2         1 4Z3      -0.351200
      4 C03          3.9300     0.7300     5.0240 ce         1 4Z3       0.322200
      5 C04          3.2440     0.6530     3.7200 c          1 4Z3       0.588800
      6 O05          3.7300     1.1920     2.7450 o          1 4Z3      -0.561100
      7 N06          2.0790    -0.0160     3.6100 ns         1 4Z3      -0.470100
      8 C07          1.3810    -0.0110     2.3980 ca         1 4Z3       0.079600
      9 C08          2.0750     0.0000     1.1960 ca         1 4Z3      -0.125000
     10 C09          1.3840     0.0000     0.0000 ca         1 4Z3      -0.099000
     11 C11         -0.6940    -0.0000     1.1960 ca         1 4Z3      -0.087000
     12 C12         -0.0090    -0.0060     2.3950 ca         1 4Z3      -0.050900
     13 Br13        -0.9590    -0.0210     4.0290 br         1 4Z3      -0.099100
     14 H1          -0.5410     0.0020    -0.9390 ha         1 4Z3       0.138000
     15 H2           6.5000     1.9450     6.2890 ho         1 4Z3       0.441000
     16 H4           3.4970     0.2500     5.8930 h4         1 4Z3       0.004800
     17 H6           1.7250    -0.5360     4.3890 hn         1 4Z3       0.337500
     18 H7           3.1580    -0.0000     1.1950 ha         1 4Z3       0.173000
     19 H8           1.9250     0.0040    -0.9380 ha         1 4Z3       0.140000
     20 H9          -1.7780     0.0010     1.1920 ha         1 4Z3       0.146000
@<TRIPOS>BOND
     1    10     9 ar
     2    10     1 ar
     3     9     8 ar
     4     1    11 ar
     5     2     3 1
     6     8     7 1
     7     8    12 ar
     8     7     5 1
     9     3     4 2
    10    11    12 ar
    11    12    13 1
    12     5     4 1
    13     5     6 2
    14     1    14 1
    15     2    15 1
    16     4    16 1
    17     7    17 1
    18     9    18 1
    19    10    19 1
    20    11    20 1
@<TRIPOS>SUBSTRUCTURE
     1 4Z3         1 TEMP              0 ****  ****    0 ROOT
