@<TRIPOS>MOLECULE
4Z3
   20    21     1     0     0
SMALL
bcc


@<TRIPOS>ATOM
      1 C10          0.0000     0.0000     0.0000 ca         1 4Z3      -0.106000
      2 O01          5.7050     1.4460     6.3810 oh         1 4Z3      -0.225000
      3 N02          5.0470     1.3720     5.1290 n2         1 4Z3       0.229000
      4 C03          3.9300     0.7300     5.0240 c2         1 4Z3      -0.477000
      5 C04          3.2440     0.6530     3.7200 c3         1 4Z3       0.159000
      6 O05          3.7300     1.1920     2.7450 o          1 4Z3      -0.412000
      7 N06          2.0790    -0.0160     3.6100 nu         1 4Z3       0.167000
      8 C07          1.3810    -0.0110     2.3980 ca         1 4Z3      -0.075000
      9 C08          2.0750     0.0000     1.1960 ca         1 4Z3      -0.103000
     10 C09          1.3840     0.0000     0.0000 ca         1 4Z3      -0.074000
     11 C11         -0.6940    -0.0000     1.1960 ca         1 4Z3      -0.067000
     12 C12         -0.0090    -0.0060     2.3950 ca         1 4Z3      -0.135000
     13 Br13        -0.9590    -0.0210     4.0290 br         1 4Z3       0.023000
     14 H1          -0.5410     0.0020    -0.9390 ha         1 4Z3       0.108000
     15 H2           6.4210     2.0580     6.3240 ho         1 4Z3       0.217000
     16 H4           4.2180     0.0630     4.2200 DU         1 4Z3       0.295000
     17 H6           1.7210    -0.5290     4.3910 hn         1 4Z3       0.106000
     18 H7           3.1580    -0.0000     1.1950 ha         1 4Z3       0.145000
     19 H8           1.9250     0.0040    -0.9380 ha         1 4Z3       0.107000
     20 H9          -1.7780     0.0010     1.1920 ha         1 4Z3       0.117000
@<TRIPOS>BOND
     1     1    10 1   
     2     1    11 1   
     3     1    14 1   
     4     2     3 1   
     5     2    15 1   
     6     3     4 1   
     7     4     5 1   
     8     4    16 1   
     9     5     6 1   
    10     5     7 1   
    11     5    16 1   
    12     7     8 1   
    13     7    17 1   
    14     8     9 1   
    15     8    12 1   
    16     9    10 1   
    17     9    18 1   
    18    10    19 1   
    19    11    12 1   
    20    11    20 1   
    21    12    13 1   
@<TRIPOS>SUBSTRUCTURE
     1 4Z3         1 TEMP              0 ****  ****    0 ROOT
