@<TRIPOS>MOLECULE
molecule
   14    14     1     0     0
SMALL
bcc


@<TRIPOS>ATOM
      1 C10          0.0000     0.0000     0.0000 ca         1 4Z4      -0.129000
      2 O01         -1.9440     0.0040     3.6870 o          1 4Z4      -0.816800
      3 C02         -0.7290    -0.0020     3.6850 c          1 4Z4       0.875200
      4 O03         -0.0530    -0.0060     4.8500 o          1 4Z4      -0.816800
      5 C04          0.0050    -0.0030     2.4060 ca         1 4Z4      -0.068600
      6 C05          1.4020    -0.0090     2.3990 ca         1 4Z4      -0.117000
      7 C06          2.0840     0.0000     1.1980 ca         1 4Z4       0.102900
      8 F07          3.4350    -0.0060     1.1890 f          1 4Z4      -0.150900
      9 C08          1.3840     0.0000     0.0000 ca         1 4Z4      -0.025600
     10 Cl09         2.2480    -0.0020    -1.5060 cl         1 4Z4      -0.136400
     11 C11         -0.6930     0.0020     1.1940 ca         1 4Z4       0.040400
     12 Cl12        -2.4290     0.0100     1.1920 cl         1 4Z4      -0.077400
     13 H1          -0.5400     0.0020    -0.9390 ha         1 4Z4       0.138000
     14 H3           1.9480    -0.0900     3.3310 ha         1 4Z4       0.181000
@<TRIPOS>BOND
     1     8     7 1   
     2     7     6 ar  
     3     7     9 ar  
     4    10     9 1   
     5     6     5 ar  
     6     9     1 ar  
     7     2     3 1   
     8     5     3 1   
     9     5    11 ar  
    10     1    11 ar  
    11     3     4 1   
    12    11    12 1   
    13     1    13 1   
    14     6    14 1   
@<TRIPOS>SUBSTRUCTURE
     1 4Z4         1 TEMP              0 ****  ****    0 ROOT
