@<TRIPOS>MOLECULE
4Z5
   60    62     1     0     0
SMALL
bcc


@<TRIPOS>ATOM
      1 O29          0.0000     0.0000     0.0000 o          1 4Z5      -0.700100
      2 C23          1.2160     0.0000     0.0000 c          1 4Z5       0.568100
      3 N24          1.8890     0.0000     1.1680 ns         1 4Z5      -0.213900
      4 C25          1.1560     0.0010     2.4370 c3         1 4Z5       0.049000
      5 C26          2.1500     0.0010     3.6000 c3         1 4Z5      -0.035400
      6 C27          1.3840     0.0010     4.9240 c3         1 4Z5      -0.066000
      7 C31          0.5040    -1.2480     5.0060 c3         1 4Z5       0.002567
      8 C30          2.3770     0.0020     6.0880 c3         1 4Z5       0.002567
      9 C28          0.5040     1.2500     5.0050 c3         1 4Z5       0.002567
     10 N22          1.8910    -0.0060    -1.1670 ns         1 4Z5      -0.049100
     11 C16          1.1940    -0.1050    -2.3780 ca         1 4Z5      -0.101400
     12 C15         -0.0500     0.4910    -2.5130 ca         1 4Z5      -0.071000
     13 C17          1.7530    -0.7950    -3.4480 ca         1 4Z5       0.068900
     14 F20          2.9680    -1.3720    -3.3190 f          1 4Z5      -0.130900
     15 C18          1.0670    -0.8950    -4.6460 ca         1 4Z5      -0.119000
     16 C19         -0.1750    -0.3080    -4.7850 ca         1 4Z5      -0.069300
     17 C21         -0.9190    -0.4190    -6.0910 c3         1 4Z5       0.047200
     18 C12         -0.7390     0.3910    -3.7190 cp         1 4Z5      -0.022000
     19 C8          -2.0710     1.0270    -3.8690 cp         1 4Z5      -0.189300
     20 C7          -3.1690     0.5230    -3.1820 ca         1 4Z5       0.019000
     21 C6          -4.4030     1.1640    -3.3600 ca         1 4Z5      -0.401600
     22 C1          -5.5710     0.7270    -2.7080 ca         1 4Z5       0.526200
     23 C9          -2.2310     2.1450    -4.7010 ca         1 4Z5       0.437600
     24 C11         -1.0340     2.6870    -5.4390 c3         1 4Z5      -0.066400
     25 N10         -3.3950     2.7280    -4.8540 nb         1 4Z5      -0.577000
     26 C5          -4.4860     2.2870    -4.2240 ca         1 4Z5       0.667300
     27 N4          -5.6740     2.8840    -4.3810 nb         1 4Z5      -0.692000
     28 C3          -6.7370     2.4310    -3.7430 ca         1 4Z5       0.726900
     29 N2          -6.6930     1.3800    -2.9260 nb         1 4Z5      -0.684000
     30 N13         -7.9440     3.0740    -3.9320 nu         1 4Z5      -0.475900
     31 C14         -9.1440     2.5970    -3.2390 c3         1 4Z5       0.199100
     32 H1           2.8900     0.0010     1.1680 hn         1 4Z5       0.168500
     33 H2           0.5330    -0.8840     2.4940 h1         1 4Z5       0.034200
     34 H3           0.5330     0.8850     2.4930 h1         1 4Z5       0.034200
     35 H4           2.7730     0.8850     3.5430 hc         1 4Z5       0.019200
     36 H5           2.7730    -0.8840     3.5430 hc         1 4Z5       0.019200
     37 H6           0.2720    -1.4590     6.0430 hc         1 4Z5       0.007589
     38 H7          -0.4150    -1.0790     4.4580 hc         1 4Z5       0.007589
     39 H8           1.0320    -2.0900     4.5750 hc         1 4Z5       0.007589
     40 H9           3.0000    -0.8830     6.0310 hc         1 4Z5       0.007589
     41 H10          1.8350     0.0020     7.0260 hc         1 4Z5       0.007589
     42 H11          3.0000     0.8860     6.0310 hc         1 4Z5       0.007589
     43 H12          0.2720     1.4630     6.0410 hc         1 4Z5       0.007589
     44 H13          1.0310     2.0920     4.5730 hc         1 4Z5       0.007589
     45 H14         -0.4150     1.0810     4.4570 hc         1 4Z5       0.007589
     46 H15          2.8860     0.0970    -1.1700 hn         1 4Z5       0.167500
     47 H16         -0.4850     1.0330    -1.6820 ha         1 4Z5       0.161000
     48 H17          1.5060    -1.4330    -5.4770 ha         1 4Z5       0.122000
     49 H18         -0.8930    -1.4460    -6.4350 hc         1 4Z5       0.015700
     50 H19         -1.9470    -0.1110    -5.9480 hc         1 4Z5       0.015700
     51 H20         -0.4500     0.2210    -6.8290 hc         1 4Z5       0.015700
     52 H21         -3.1320    -0.4720    -2.7570 ha         1 4Z5       0.119000
     53 H22         -5.5470    -0.1270    -2.0410 h4         1 4Z5      -0.014900
     54 H23         -0.1270     2.3050    -4.9870 hc         1 4Z5       0.022367
     55 H24         -1.0790     2.3780    -6.4760 hc         1 4Z5       0.022367
     56 H25         -1.0370     3.7690    -5.3840 hc         1 4Z5       0.022367
     57 H26         -8.0000     3.8660    -4.5410 hn         1 4Z5       0.301800
     58 H27         -9.9880     3.2210    -3.5080 h1         1 4Z5       0.009033
     59 H28         -8.9860     2.6450    -2.1680 h1         1 4Z5       0.009033
     60 H29         -9.3450     1.5730    -3.5290 h1         1 4Z5       0.009033
@<TRIPOS>BOND
     1     1     2 2   
     2     2     3 1   
     3     2    10 1   
     4     3     4 1   
     5     3    32 1   
     6     4     5 1   
     7     4    33 1   
     8     4    34 1   
     9     5     6 1   
    10     5    35 1   
    11     5    36 1   
    12     6     7 1   
    13     6     8 1   
    14     6     9 1   
    15     7    37 1   
    16     7    38 1   
    17     7    39 1   
    18     8    40 1   
    19     8    41 1   
    20     8    42 1   
    21     9    43 1   
    22     9    44 1   
    23     9    45 1   
    24    10    11 1   
    25    10    46 1   
    26    11    12 ar  
    27    11    13 ar  
    28    12    18 ar  
    29    12    47 1   
    30    13    14 1   
    31    13    15 ar  
    32    15    16 ar  
    33    15    48 1   
    34    16    17 1   
    35    16    18 ar  
    36    17    49 1   
    37    17    50 1   
    38    17    51 1   
    39    18    19 1   
    40    19    20 ar  
    41    19    23 ar  
    42    20    21 ar  
    43    20    52 1   
    44    21    22 ar  
    45    21    26 ar  
    46    22    29 ar  
    47    22    53 1   
    48    23    24 1   
    49    23    25 ar  
    50    24    54 1   
    51    24    55 1   
    52    24    56 1   
    53    25    26 ar  
    54    26    27 ar  
    55    27    28 ar  
    56    28    29 ar  
    57    28    30 1   
    58    30    31 1   
    59    30    57 1   
    60    31    58 1   
    61    31    59 1   
    62    31    60 1   
@<TRIPOS>SUBSTRUCTURE
     1 4Z5         1 TEMP              0 ****  ****    0 ROOT
