@<TRIPOS>MOLECULE
molecule
   60    62     1     0     0
SMALL
bcc


@<TRIPOS>ATOM
      1 O29          0.0000     0.0000     0.0000 o          1 4Z5      -0.652100
      2 C23          1.2160     0.0000     0.0000 c          1 4Z5       0.784100
      3 N24          1.8890     0.0000     1.1680 ns         1 4Z5      -0.599900
      4 C25          1.1560     0.0010     2.4370 c3         1 4Z5       0.126000
      5 C26          2.1500     0.0010     3.6000 c3         1 4Z5      -0.090400
      6 C27          1.3840     0.0010     4.9240 c3         1 4Z5      -0.067000
      7 C31          0.5040    -1.2480     5.0060 c3         1 4Z5      -0.085100
      8 C30          2.3770     0.0020     6.0880 c3         1 4Z5      -0.085100
      9 C28          0.5040     1.2500     5.0050 c3         1 4Z5      -0.085100
     10 N22          1.8910    -0.0060    -1.1670 ns         1 4Z5      -0.490100
     11 C16          1.1940    -0.1050    -2.3780 ca         1 4Z5       0.035600
     12 C15         -0.0500     0.4910    -2.5130 ca         1 4Z5      -0.090000
     13 C17          1.7530    -0.7950    -3.4480 ca         1 4Z5       0.099900
     14 F20          2.9680    -1.3720    -3.3190 f          1 4Z5      -0.145900
     15 C18          1.0670    -0.8950    -4.6460 ca         1 4Z5      -0.154000
     16 C19         -0.1750    -0.3080    -4.7850 ca         1 4Z5      -0.065300
     17 C21         -0.9190    -0.4190    -6.0910 c3         1 4Z5      -0.050800
     18 C12         -0.7390     0.3910    -3.7190 cp         1 4Z5      -0.039000
     19 C8          -2.0710     1.0270    -3.8690 cp         1 4Z5      -0.201300
     20 C7          -3.1690     0.5230    -3.1820 ca         1 4Z5      -0.011000
     21 C6          -4.4030     1.1640    -3.3600 ca         1 4Z5      -0.408600
     22 C1          -5.5710     0.7270    -2.7080 ca         1 4Z5       0.539200
     23 C9          -2.2310     2.1450    -4.7010 ca         1 4Z5       0.501600
     24 C11         -1.0340     2.6870    -5.4390 c3         1 4Z5      -0.150400
     25 N10         -3.3950     2.7280    -4.8540 nb         1 4Z5      -0.694000
     26 C5          -4.4860     2.2870    -4.2240 ca         1 4Z5       0.760300
     27 N4          -5.6740     2.8840    -4.3810 nb         1 4Z5      -0.792000
     28 C3          -6.7370     2.4310    -3.7430 ca         1 4Z5       0.958900
     29 N2          -6.6930     1.3800    -2.9260 nb         1 4Z5      -0.793000
     30 N13         -7.9440     3.0740    -3.9320 nu         1 4Z5      -0.893900
     31 C14         -9.1440     2.5970    -3.2390 c3         1 4Z5       0.235100
     32 H1           2.8900     0.0010     1.1680 hn         1 4Z5       0.308500
     33 H2           0.5330    -0.8840     2.4940 h1         1 4Z5       0.057200
     34 H3           0.5330     0.8850     2.4930 h1         1 4Z5       0.057200
     35 H4           2.7730     0.8850     3.5430 hc         1 4Z5       0.046200
     36 H5           2.7730    -0.8840     3.5430 hc         1 4Z5       0.046200
     37 H6           0.2720    -1.4590     6.0430 hc         1 4Z5       0.037367
     38 H7          -0.4150    -1.0790     4.4580 hc         1 4Z5       0.037367
     39 H8           1.0320    -2.0900     4.5750 hc         1 4Z5       0.037367
     40 H9           3.0000    -0.8830     6.0310 hc         1 4Z5       0.037367
     41 H10          1.8350     0.0020     7.0260 hc         1 4Z5       0.037367
     42 H11          3.0000     0.8860     6.0310 hc         1 4Z5       0.037367
     43 H12          0.2720     1.4630     6.0410 hc         1 4Z5       0.037367
     44 H13          1.0310     2.0920     4.5730 hc         1 4Z5       0.037367
     45 H14         -0.4150     1.0810     4.4570 hc         1 4Z5       0.037367
     46 H15          2.8860     0.0970    -1.1700 hn         1 4Z5       0.325500
     47 H16         -0.4850     1.0330    -1.6820 ha         1 4Z5       0.183000
     48 H17          1.5060    -1.4330    -5.4770 ha         1 4Z5       0.149000
     49 H18         -0.8930    -1.4460    -6.4350 hc         1 4Z5       0.049367
     50 H19         -1.9470    -0.1110    -5.9480 hc         1 4Z5       0.049367
     51 H20         -0.4500     0.2210    -6.8290 hc         1 4Z5       0.049367
     52 H21         -3.1320    -0.4720    -2.7570 ha         1 4Z5       0.150000
     53 H22         -5.5470    -0.1270    -2.0410 h4         1 4Z5       0.033100
     54 H23         -0.1270     2.3050    -4.9870 hc         1 4Z5       0.059367
     55 H24         -1.0790     2.3780    -6.4760 hc         1 4Z5       0.059367
     56 H25         -1.0370     3.7690    -5.3840 hc         1 4Z5       0.059367
     57 H26         -8.0000     3.8660    -4.5410 hn         1 4Z5       0.461800
     58 H27         -9.9880     3.2210    -3.5080 h1         1 4Z5       0.041367
     59 H28         -8.9860     2.6450    -2.1680 h1         1 4Z5       0.041367
     60 H29         -9.3450     1.5730    -3.5290 h1         1 4Z5       0.041367
@<TRIPOS>BOND
     1     9     6 1   
     2     8     6 1   
     3     6     7 1   
     4     6     5 1   
     5     5     4 1   
     6     4     3 1   
     7     3     2 1   
     8     1     2 2   
     9     2    10 1   
    10    10    11 1   
    11    11    12 ar  
    12    11    13 ar  
    13    12    18 ar  
    14    14    13 1   
    15    13    15 ar  
    16    18    19 1   
    17    18    16 ar  
    18    24    23 1   
    19    19    23 ar  
    20    19    20 ar  
    21    23    25 ar  
    22    20    21 ar  
    23    25    26 ar  
    24    21    26 ar  
    25    21    22 ar  
    26    26    27 ar  
    27    15    16 ar  
    28    22    29 ar  
    29    27    28 ar  
    30    16    17 1   
    31    29    28 ar  
    32    28    30 1   
    33    30    31 1   
    34     3    32 1   
    35     4    33 1   
    36     4    34 1   
    37     5    35 1   
    38     5    36 1   
    39     7    37 1   
    40     7    38 1   
    41     7    39 1   
    42     8    40 1   
    43     8    41 1   
    44     8    42 1   
    45     9    43 1   
    46     9    44 1   
    47     9    45 1   
    48    10    46 1   
    49    12    47 1   
    50    15    48 1   
    51    17    49 1   
    52    17    50 1   
    53    17    51 1   
    54    20    52 1   
    55    22    53 1   
    56    24    54 1   
    57    24    55 1   
    58    24    56 1   
    59    30    57 1   
    60    31    58 1   
    61    31    59 1   
    62    31    60 1   
@<TRIPOS>SUBSTRUCTURE
     1 4Z5         1 TEMP              0 ****  ****    0 ROOT
