@<TRIPOS>MOLECULE
molecule
   55    57     1     0     0
SMALL
bcc


@<TRIPOS>ATOM
      1 C4           0.0000     0.0000     0.0000 ca         1 4Z8      -0.057900
      2 C5           1.3940     0.0000     0.0000 ca         1 4Z8       0.499200
      3 C11         -3.1270     0.0200     1.8930 c3         1 4Z8       0.049000
      4 C7           1.4500     0.0010     2.3160 ca         1 4Z8       0.670200
      5 C8           0.0670     0.0100     2.4070 ca         1 4Z8      -0.296300
      6 C9          -0.6790     0.0080     1.2350 ca         1 4Z8      -0.036200
      7 C12         -3.1000    -1.2710     2.7140 c3         1 4Z8      -0.110100
      8 C13         -2.9810     1.2230     2.8280 c3         1 4Z8      -0.110100
      9 N3          -0.9490    -0.0010    -0.9700 nc         1 4Z8      -0.594100
     10 C1          -3.4320    -0.0010    -1.1860 c3         1 4Z8      -0.098400
     11 C2          -2.1310    -0.0010    -0.4260 cd         1 4Z8       0.428800
     12 N6           2.0590     0.0000     1.1360 nb         1 4Z8      -0.698000
     13 N10         -2.0200     0.0110     0.9330 na         1 4Z8      -0.148300
     14 N14          2.2130     0.0050     3.4820 nu         1 4Z8      -0.856600
     15 C15          3.5940     0.1140     3.4080 ca         1 4Z8       0.759200
     16 C16          4.3770     0.0000     4.5580 ca         1 4Z8      -0.475600
     17 C17          5.7480     0.1160     4.4360 ca         1 4Z8       0.523200
     18 N18          6.2760     0.3290     3.2400 nb         1 4Z8      -0.841000
     19 C19          5.5090     0.4320     2.1650 ca         1 4Z8       0.958900
     20 N20          4.1920     0.3220     2.2390 nb         1 4Z8      -0.783000
     21 N21          6.1000     0.6550     0.9330 nu         1 4Z8      -0.919900
     22 C22          7.5560     0.7750     0.8300 c3         1 4Z8       0.278800
     23 C23          7.9460     1.0170    -0.6300 c3         1 4Z8      -0.167000
     24 C24          7.4680    -0.1570    -1.4860 c3         1 4Z8      -0.101100
     25 C25          7.2930     2.3090    -1.1240 c3         1 4Z8      -0.101100
     26 C26          9.4440     1.1390    -0.7360 c          1 4Z8       0.489100
     27 O27         10.1330     1.0420     0.2580 o          1 4Z8      -0.387100
     28 N28         10.0190     1.3570    -1.9350 nz         1 4Z8      -0.684400
     29 H1           1.9330    -0.0010    -0.9400 h4         1 4Z8       0.027100
     30 H2          -4.0720     0.0950     1.3690 h1         1 4Z8       0.076700
     31 H3          -0.4230     0.0110     3.3730 ha         1 4Z8       0.136000
     32 H4          -4.1130    -1.5650     2.9590 hc         1 4Z8       0.050700
     33 H5          -2.6260    -2.0560     2.1370 hc         1 4Z8       0.050700
     34 H6          -2.5410    -1.1060     3.6270 hc         1 4Z8       0.050700
     35 H7          -2.3900     1.9890     2.3410 hc         1 4Z8       0.050700
     36 H8          -2.4880     0.9120     3.7410 hc         1 4Z8       0.050700
     37 H9          -3.9620     1.6180     3.0630 hc         1 4Z8       0.050700
     38 H10         -3.9940     0.8920    -0.9400 hc         1 4Z8       0.063033
     39 H11         -4.0080    -0.8770    -0.9150 hc         1 4Z8       0.063033
     40 H12         -3.2280    -0.0180    -2.2500 hc         1 4Z8       0.063033
     41 H13          1.7650    -0.0710     4.3740 hn         1 4Z8       0.470800
     42 H14          3.9190    -0.1740     5.5250 ha         1 4Z8       0.149000
     43 H15          6.3840     0.0320     5.3090 h4         1 4Z8       0.035100
     44 H16          5.5320     0.7340     0.1130 hn         1 4Z8       0.457800
     45 H17          8.0190    -0.1390     1.1810 h1         1 4Z8       0.073700
     46 H18          7.8940     1.6070     1.4360 h1         1 4Z8       0.073700
     47 H19          6.3880    -0.2220    -1.4380 hc         1 4Z8       0.063700
     48 H20          7.9020    -1.0770    -1.1140 hc         1 4Z8       0.063700
     49 H21          7.7750    -0.0030    -2.5140 hc         1 4Z8       0.063700
     50 H22          7.4240     2.3930    -2.1960 hc         1 4Z8       0.063700
     51 H23          7.7560     3.1580    -0.6360 hc         1 4Z8       0.063700
     52 H24          6.2350     2.2910    -0.8900 hc         1 4Z8       0.063700
     53 H25         10.0790     0.4930    -2.4380 hn         1 4Z8       0.478467
     54 H26          9.4680     2.0090    -2.4560 hn         1 4Z8       0.478467
     55 H283        10.9390     1.7290    -1.8010 hn         1 4Z8       0.478467
@<TRIPOS>BOND
     1    24    23 1
     2    18    17 ar
     3    18    19 ar
     4    17    16 ar
     5    28    26 1
     6    21    19 1
     7    21    22 1
     8    19    20 ar
     9    23    26 1
    10    23    22 1
    11    23    25 1
    12    26    27 2
    13    16    15 ar
    14    20    15 ar
    15    15    14 1
    16    14     4 1
    17     4     5 ar
    18     4    12 ar
    19     5     6 ar
    20     8     3 1
    21     7     3 1
    22    12     2 ar
    23     6    13 1
    24     6     1 ar
    25     3    13 1
    26    13    11 1
    27     2     1 ar
    28     1     9 1
    29    11     9 2
    30    11    10 1
    31     2    29 1
    32     3    30 1
    33     5    31 1
    34     7    32 1
    35     7    33 1
    36     7    34 1
    37     8    35 1
    38     8    36 1
    39     8    37 1
    40    10    38 1
    41    10    39 1
    42    10    40 1
    43    14    41 1
    44    16    42 1
    45    17    43 1
    46    21    44 1
    47    22    45 1
    48    22    46 1
    49    24    47 1
    50    24    48 1
    51    24    49 1
    52    25    50 1
    53    25    51 1
    54    25    52 1
    55    28    53 1
    56    28    54 1
    57    55    28 1
@<TRIPOS>SUBSTRUCTURE
     1 4Z8         1 TEMP              0 ****  ****    0 ROOT
