@<TRIPOS>MOLECULE
molecule
   25    26     1     0     0
SMALL
bcc


@<TRIPOS>ATOM
      1 C8           0.0000     0.0000     0.0000 ca         1 4Z9      -0.046200
      2 C5           1.4140    -0.0080    -2.3890 ca         1 4Z9      -0.179000
      3 C9           1.4070     0.0000     0.0000 ca         1 4Z9      -0.096800
      4 C10          5.1950     1.4300     2.4050 c          1 4Z9       0.867600
      5 O11          6.1160     0.8760     1.6010 o          1 4Z9      -0.842800
      6 C13          3.7450     1.4380     1.9960 c3         1 4Z9       0.044100
      7 O14          2.9840     2.1800     2.9520 oh         1 4Z9      -0.618800
      8 C3           1.8120     0.0000     1.4080 cc         1 4Z9      -0.112400
      9 C2           0.6870    -0.0010     2.1400 cd         1 4Z9      -0.115100
     10 N1          -0.4060    -0.0010     1.3160 na         1 4Z9      -0.196400
     11 C7          -0.6810    -0.0050    -1.2120 ca         1 4Z9      -0.160000
     12 C6           0.0260    -0.0090    -2.3940 ca         1 4Z9      -0.121000
     13 C4           2.1040     0.0010    -1.2100 ca         1 4Z9      -0.062000
     14 H1           1.9550    -0.0120    -3.3280 ha         1 4Z9       0.118000
     15 H3           3.6480     1.9000     1.0210 h1         1 4Z9       0.021700
     16 H4           3.0490     3.1010     2.7590 ho         1 4Z9       0.388000
     17 H7           0.6500    -0.0020     3.2230 h4         1 4Z9       0.170000
     18 H8          -1.3580    -0.0020     1.6250 hn         1 4Z9       0.279700
     19 H9          -1.7640    -0.0050    -1.2260 ha         1 4Z9       0.109000
     20 H10         -0.5070    -0.0170    -3.3370 ha         1 4Z9       0.112000
     21 H11          3.1870     0.0010    -1.2140 ha         1 4Z9       0.148000
     22 C15          3.2240     0.0010     1.9340 c3         1 4Z9       0.007800
     23 H5           3.8550    -0.5840     1.2760 hc         1 4Z9       0.062200
     24 H6           3.2400    -0.4320     2.9270 hc         1 4Z9       0.062200
     25 O12          5.5330     1.9560     3.4400 o          1 4Z9      -0.842800
@<TRIPOS>BOND
     1    12     2 ar
     2    12    11 ar
     3     2    13 ar
     4    11     1 ar
     5    13     3 ar
     6     1     3 ar
     7     1    10 1
     8     3     8 1
     9     7     6 1
    10    10     9 1
    11     8    22 1
    12     8     9 2
    13     6    22 1
    14     6     4 1
    15    25     4 1
    16     4     5 1
    17     2    14 1
    18     6    15 1
    19     7    16 1
    20    22    23 1
    21    22    24 1
    22     9    17 1
    23    10    18 1
    24    11    19 1
    25    12    20 1
    26    13    21 1
@<TRIPOS>SUBSTRUCTURE
     1 4Z9         1 TEMP              0 ****  ****    0 ROOT
