@<TRIPOS>MOLECULE
molecule
   15    16     1     0     0
SMALL
bcc


@<TRIPOS>ATOM
      1 C10          0.0000     0.0000     0.0000 cc         1 4ZA      -0.014400
      2 O01         -0.5310    -0.0000    -4.2490 o          1 4ZA      -0.830800
      3 C02          0.6500    -0.0000    -3.5960 c          1 4ZA       0.901200
      4 O03          1.6920    -0.0020    -4.2240 o          1 4ZA      -0.830800
      5 C04          0.6780    -0.0010    -2.1330 cc         1 4ZA      -0.083900
      6 C05          1.7990    -0.0010    -1.3590 cd         1 4ZA      -0.174000
      7 C06          1.3820     0.0000     0.0000 cd         1 4ZA      -0.162000
      8 C07          1.9320     0.0000     1.3490 cd         1 4ZA      -0.083000
      9 C08          1.0310     0.0000     2.3090 cc         1 4ZA      -0.110100
     10 S09         -0.5960    -0.0050     1.6560 ss         1 4ZA      -0.239800
     11 N11         -0.4290     0.0000    -1.3060 na         1 4ZA      -0.117100
     12 H2           2.8170    -0.1090    -1.7130 ha         1 4ZA       0.156000
     13 H3           2.9970     0.0030     1.5460 ha         1 4ZA       0.130000
     14 H4           1.2640     0.0030     3.3670 h4         1 4ZA       0.147000
     15 H5          -1.3830     0.0010    -1.6070 hn         1 4ZA       0.309700
@<TRIPOS>BOND
     1     9     8 2
     2     9    10 1
     3     8     7 1
     4    10     1 1
     5     7     1 2
     6     7     6 1
     7     1    11 1
     8     6     5 2
     9    11     5 1
    10     5     3 1
    11     3     4 1
    12     3     2 1
    13     6    12 1
    14     8    13 1
    15     9    14 1
    16    11    15 1
@<TRIPOS>SUBSTRUCTURE
     1 4ZA         1 TEMP              0 ****  ****    0 ROOT
