@<TRIPOS>MOLECULE
4ZB
   56    59     1     0     0
SMALL
bcc


@<TRIPOS>ATOM
      1 C4           0.0000     0.0000     0.0000 ca         1 4ZB      -0.075900
      2 C5           1.3930     0.0000     0.0000 ca         1 4ZB       0.490200
      3 C11         -3.1270     0.0200     1.8950 c3         1 4ZB      -0.067000
      4 C7           1.4510     0.0010     2.3160 ca         1 4ZB       0.455200
      5 C8           0.0670     0.0090     2.4060 ca         1 4ZB      -0.254300
      6 C9          -0.6790     0.0080     1.2360 ca         1 4ZB      -0.206200
      7 C12         -3.0990    -1.2710     2.7150 c3         1 4ZB      -0.014100
      8 C13         -2.9800     1.2210     2.8310 c3         1 4ZB      -0.014100
      9 N3          -0.9510    -0.0010    -0.9690 nc         1 4ZB      -0.499100
     10 C1          -3.4330     0.0000    -1.1830 c3         1 4ZB       0.012600
     11 C2          -2.1320     0.0000    -0.4240 cd         1 4ZB       0.226800
     12 N6           2.0600     0.0000     1.1360 nb         1 4ZB      -0.586000
     13 N10         -2.0200     0.0120     0.9340 na         1 4ZB       0.317700
     14 N14          2.2140     0.0030     3.4820 nu         1 4ZB      -0.380600
     15 C15          3.5950     0.1120     3.4070 ca         1 4ZB       0.542200
     16 C16          4.3780    -0.0020     4.5570 ca         1 4ZB      -0.425600
     17 C17          5.7500     0.1140     4.4340 ca         1 4ZB       0.505200
     18 N18          6.2780     0.3270     3.2370 nb         1 4ZB      -0.752000
     19 C19          5.5100     0.4310     2.1630 ca         1 4ZB       0.710900
     20 N20          4.1920     0.3210     2.2370 nb         1 4ZB      -0.616000
     21 N21          6.1000     0.6540     0.9310 nh         1 4ZB      -0.433300
     22 C22          5.6150     1.9240     0.3310 c3         1 4ZB       0.152800
     23 C23          6.6980     2.3050    -0.7020 c3         1 4ZB      -0.028400
     24 C24          7.9810     1.6010    -0.2140 c3         1 4ZB      -0.164000
     25 C25          7.5650     0.8530     1.0710 c3         1 4ZB       0.140800
     26 C26          8.4770     0.6110    -1.2700 c3         1 4ZB       0.010900
     27 C27          9.0510     2.6160     0.0930 c          1 4ZB       0.333100
     28 O28          8.8260     3.7980    -0.0570 o          1 4ZB      -0.402100
     29 N29         10.2580     2.2110     0.5350 nz         1 4ZB       0.193600
     30 H1           1.9320    -0.0010    -0.9400 h4         1 4ZB      -0.014900
     31 H2          -4.0720     0.0960     1.3720 h1         1 4ZB       0.054700
     32 H3          -0.4220     0.0100     3.3730 ha         1 4ZB       0.121000
     33 H4          -2.8150    -2.0990     2.0760 hc         1 4ZB       0.018200
     34 H5          -4.0820    -1.4560     3.1310 hc         1 4ZB       0.018200
     35 H6          -2.3790    -1.1730     3.5190 hc         1 4ZB       0.018200
     36 H7          -2.5160     2.0410     2.2960 hc         1 4ZB       0.018200
     37 H8          -2.3620     0.9460     3.6770 hc         1 4ZB       0.018200
     38 H9          -3.9580     1.5270     3.1820 hc         1 4ZB       0.018200
     39 H10         -3.2300     0.0130    -2.2480 hc         1 4ZB       0.020033
     40 H11         -3.9970    -0.8910    -0.9340 hc         1 4ZB       0.020033
     41 H12         -4.0070     0.8780    -0.9150 hc         1 4ZB       0.020033
     42 H13          1.7690    -0.1120     4.3710 hn         1 4ZB       0.293800
     43 H14          3.9160     0.0530     5.5350 ha         1 4ZB       0.132000
     44 H15          6.3690     0.1830     5.3200 h4         1 4ZB      -0.016900
     45 H16          4.6630     1.7680    -0.1620 h1         1 4ZB       0.043700
     46 H17          5.5330     2.6920     1.0910 h1         1 4ZB       0.043700
     47 H18          6.8420     3.3790    -0.7160 hc         1 4ZB       0.052200
     48 H19          6.4220     1.9430    -1.6850 hc         1 4ZB       0.052200
     49 H20          7.7810     1.4570     1.9440 h1         1 4ZB       0.035200
     50 H21          8.0700    -0.1030     1.1300 h1         1 4ZB       0.035200
     51 H22          7.6530    -0.0140    -1.5950 hc         1 4ZB       0.026033
     52 H23          8.8730     1.1560    -2.1190 hc         1 4ZB       0.026033
     53 H24          9.2560    -0.0110    -0.8450 hc         1 4ZB       0.026033
     54 H25         10.9220     2.2620    -0.2120 hn         1 4ZB       0.249467
     55 H26         10.5550     2.8030     1.2860 hn         1 4ZB       0.249467
     56 H293        10.1940     1.2660     0.8600 hn         1 4ZB       0.249467
@<TRIPOS>BOND
     1     1     2 ar  
     2     1     6 ar  
     3     1     9 1   
     4     2    12 ar  
     5     2    30 1   
     6     3     7 1   
     7     3     8 1   
     8     3    13 1   
     9     3    31 1   
    10     4     5 ar  
    11     4    12 ar  
    12     4    14 1   
    13     5     6 ar  
    14     5    32 1   
    15     6    13 1   
    16     7    33 1   
    17     7    34 1   
    18     7    35 1   
    19     8    36 1   
    20     8    37 1   
    21     8    38 1   
    22     9    11 2   
    23    10    11 1   
    24    10    39 1   
    25    10    40 1   
    26    10    41 1   
    27    11    13 1   
    28    14    15 1   
    29    14    42 1   
    30    15    16 ar  
    31    15    20 ar  
    32    16    17 ar  
    33    16    43 1   
    34    17    18 ar  
    35    17    44 1   
    36    18    19 ar  
    37    19    20 ar  
    38    19    21 1   
    39    21    22 1   
    40    21    25 1   
    41    22    23 1   
    42    22    45 1   
    43    22    46 1   
    44    23    24 1   
    45    23    47 1   
    46    23    48 1   
    47    24    25 1   
    48    24    26 1   
    49    24    27 1   
    50    25    49 1   
    51    25    50 1   
    52    26    51 1   
    53    26    52 1   
    54    26    53 1   
    55    27    28 2   
    56    27    29 1   
    57    29    54 1   
    58    29    55 1   
    59    29    56 1   
@<TRIPOS>SUBSTRUCTURE
     1 4ZB         1 TEMP              0 ****  ****    0 ROOT
