@<TRIPOS>MOLECULE
4ZC
   14    14     1     0     0
SMALL
bcc


@<TRIPOS>ATOM
      1 O01          0.0000     0.0000     0.0000 oh         1 4ZC      -0.482100
      2 C02          1.3580     0.0000     0.0000 ca         1 4ZC       0.129100
      3 C03          2.0530     0.0000     1.1990 ca         1 4ZC      -0.135000
      4 C04          3.4350    -0.0060     1.1980 ca         1 4ZC      -0.046000
      5 C05          4.1350    -0.0120     0.0030 ca         1 4ZC      -0.059600
      6 Cl06         5.8710    -0.0190     0.0180 cl         1 4ZC      -0.005400
      7 C07          3.4580    -0.0120    -1.1990 ca         1 4ZC      -0.056000
      8 C08          2.0620    -0.0060    -1.2120 ca         1 4ZC       0.014000
      9 C09          1.3530    -0.0120    -2.4560 cg         1 4ZC       0.234800
     10 N10          0.8040    -0.0290    -3.4510 n1         1 4ZC      -0.369800
     11 H1          -0.2500    -0.9050     0.0870 ho         1 4ZC       0.408000
     12 H2           1.3400    -0.1250     2.0050 ha         1 4ZC       0.125000
     13 H3           3.9180    -0.1650     2.1540 ha         1 4ZC       0.117000
     14 H4           4.0750     0.1710    -2.0700 ha         1 4ZC       0.127000
@<TRIPOS>BOND
     1     1     2 1   
     2     1    11 1   
     3     2     3 ar  
     4     2     8 ar  
     5     3     4 ar  
     6     3    12 1   
     7     4     5 ar  
     8     4    13 1   
     9     5     6 1   
    10     5     7 ar  
    11     7     8 ar  
    12     7    14 1   
    13     8     9 1   
    14     9    10 3   
@<TRIPOS>SUBSTRUCTURE
     1 4ZC         1 TEMP              0 ****  ****    0 ROOT
