@<TRIPOS>MOLECULE
molecule
   19    19     1     0     0
SMALL
bcc


@<TRIPOS>ATOM
      1 C10          0.0000     0.0000     0.0000 ca         1 4ZD      -0.122000
      2 O01          2.9770    -4.3570     4.5380 o          1 4ZD      -0.842300
      3 C02          3.4750    -3.5700     5.3220 c          1 4ZD       0.866800
      4 O03          4.2250    -4.0240     6.3490 o          1 4ZD      -0.842300
      5 C04          3.2680    -2.1850     5.1580 ce         1 4ZD      -0.143200
      6 C05          2.5170    -1.7300     4.1300 c2         1 4ZD      -0.082400
      7 S06          2.2590     0.0010     3.9260 ss         1 4ZD      -0.316500
      8 C07          1.3810     0.0010     2.3980 ca         1 4ZD       0.022900
      9 C08          2.0750     0.0000     1.1950 ca         1 4ZD      -0.083500
     10 C09          1.3830     0.0000     0.0000 ca         1 4ZD      -0.147500
     11 C11         -0.6940     0.0060     1.1960 ca         1 4ZD      -0.147500
     12 C12         -0.0080     0.0060     2.3940 ca         1 4ZD      -0.083500
     13 H1          -0.5410    -0.0000    -0.9390 ha         1 4ZD       0.117000
     14 H3           3.7120    -1.4850     5.8560 ha         1 4ZD       0.110000
     15 H5           2.0740    -2.4300     3.4320 h4         1 4ZD       0.166000
     16 H7           3.1590     0.0000     1.1940 ha         1 4ZD       0.143000
     17 H8           1.9240    -0.0030    -0.9390 ha         1 4ZD       0.121500
     18 H9          -1.7780     0.0080     1.1930 ha         1 4ZD       0.121500
     19 H10         -0.5530     0.0110     3.3310 ha         1 4ZD       0.143000
@<TRIPOS>BOND
     1     7     6 1   
     2     7     8 1   
     3     5     6 2   
     4     5     3 1   
     5     3     2 1   
     6     3     4 1   
     7     8     9 ar  
     8     8    12 ar  
     9     9    10 ar  
    10    12    11 ar  
    11    10     1 ar  
    12    11     1 ar  
    13     1    13 1   
    14     5    14 1   
    15     6    15 1   
    16     9    16 1   
    17    10    17 1   
    18    11    18 1   
    19    12    19 1   
@<TRIPOS>SUBSTRUCTURE
     1 4ZD         1 TEMP              0 ****  ****    0 ROOT
