@<TRIPOS>MOLECULE
4ZE
   18    18     1     0     0
SMALL
bcc


@<TRIPOS>ATOM
      1 C1           0.0000     0.0000     0.0000 c3         1 4ZE       0.074200
      2 C2           1.5080     0.0000     0.0000 ca         1 4ZE      -0.109300
      3 C3           2.1980     0.0000     1.1960 ca         1 4ZE      -0.096000
      4 C4           3.5860     0.0000     1.1950 ca         1 4ZE       0.002600
      5 N5           4.2870    -0.0010     2.4070 nv         1 4ZE      -0.536200
      6 C6           4.2790     0.0000    -0.0080 ca         1 4ZE      -0.095000
      7 C7           3.5870     0.0000    -1.2040 ca         1 4ZE      -0.176000
      8 C8           2.2000    -0.0050    -1.2020 ca         1 4ZE       0.130100
      9 O9           1.5190    -0.0100    -2.3800 oh         1 4ZE      -0.482100
     10 H1          -0.3610    -0.0860     1.0180 hc         1 4ZE       0.007700
     11 H2          -0.3610    -0.8380    -0.5830 hc         1 4ZE       0.007700
     12 H3          -0.3610     0.9240    -0.4340 hc         1 4ZE       0.007700
     13 H4           1.6570    -0.0570     2.1330 ha         1 4ZE       0.111000
     14 H5           4.8350     0.7940     2.6680 hn         1 4ZE       0.268800
     15 H6           4.2280    -0.7920     3.0180 hn         1 4ZE       0.268800
     16 H7           5.3620     0.0020    -0.0100 ha         1 4ZE       0.106000
     17 H8           4.1270    -0.0020    -2.1420 ha         1 4ZE       0.107000
     18 H9           2.0320     0.4250    -3.0410 ho         1 4ZE       0.400000
@<TRIPOS>BOND
     1     1     2 1   
     2     1    10 1   
     3     1    11 1   
     4     1    12 1   
     5     2     3 ar  
     6     2     8 ar  
     7     3     4 ar  
     8     3    13 1   
     9     4     5 1   
    10     4     6 ar  
    11     5    14 1   
    12     5    15 1   
    13     6     7 ar  
    14     6    16 1   
    15     7     8 ar  
    16     7    17 1   
    17     8     9 1   
    18     9    18 1   
@<TRIPOS>SUBSTRUCTURE
     1 4ZE         1 TEMP              0 ****  ****    0 ROOT
