@<TRIPOS>MOLECULE
molecule
   18    18     1     0     0
SMALL
bcc


@<TRIPOS>ATOM
      1 C1           0.0000     0.0000     0.0000 c3         1 4ZE      -0.036800
      2 C2           1.5080     0.0000     0.0000 ca         1 4ZE      -0.094300
      3 C3           2.1980     0.0000     1.1960 ca         1 4ZE      -0.127000
      4 C4           3.5860     0.0000     1.1950 ca         1 4ZE       0.144600
      5 N5           4.2870    -0.0010     2.4070 nv         1 4ZE      -0.977200
      6 C6           4.2790     0.0000    -0.0080 ca         1 4ZE      -0.128000
      7 C7           3.5870     0.0000    -1.2040 ca         1 4ZE      -0.195000
      8 C8           2.2000    -0.0050    -1.2020 ca         1 4ZE       0.110100
      9 O9           1.5190    -0.0100    -2.3800 oh         1 4ZE      -0.504100
     10 H1          -0.3610    -0.0860     1.0180 hc         1 4ZE       0.044033
     11 H2          -0.3610    -0.8380    -0.5830 hc         1 4ZE       0.044033
     12 H3          -0.3610     0.9240    -0.4340 hc         1 4ZE       0.044033
     13 H4           1.6570    -0.0570     2.1330 ha         1 4ZE       0.138000
     14 H5           4.8350     0.7940     2.6680 hn         1 4ZE       0.426300
     15 H6           4.2280    -0.7920     3.0180 hn         1 4ZE       0.426300
     16 H7           5.3620     0.0020    -0.0100 ha         1 4ZE       0.135000
     17 H8           4.1270    -0.0020    -2.1420 ha         1 4ZE       0.130000
     18 H9           2.0320     0.4250    -3.0410 ho         1 4ZE       0.418000
@<TRIPOS>BOND
     1     1     2 1   
     2     2     3 ar  
     3     2     8 ar  
     4     3     4 ar  
     5     9     8 1   
     6     8     7 ar  
     7     4     5 1   
     8     4     6 ar  
     9     7     6 ar  
    10     1    10 1   
    11     1    11 1   
    12     1    12 1   
    13     3    13 1   
    14     5    14 1   
    15     5    15 1   
    16     6    16 1   
    17     7    17 1   
    18     9    18 1   
@<TRIPOS>SUBSTRUCTURE
     1 4ZE         1 TEMP              0 ****  ****    0 ROOT
