@<TRIPOS>MOLECULE
4ZF
   25    27     1     0     0
SMALL
bcc


@<TRIPOS>ATOM
      1 C10          0.0000     0.0000     0.0000 cc         1 4ZF       0.488500
      2 C13          0.6030     0.0050     3.5330 ca         1 4ZF      -0.065000
      3 C15          3.0080    -0.0010     3.4860 ca         1 4ZF      -0.134000
      4 C17          1.7930     0.0000     1.4230 ca         1 4ZF      -0.087800
      5 O01          1.9860    -0.0030    -5.3490 o          1 4ZF      -0.850300
      6 O03          4.2060    -0.0030    -5.3650 o          1 4ZF      -0.850300
      7 C04          2.9900    -0.0010    -3.2380 cc         1 4ZF      -0.123900
      8 C05          1.8690    -0.0020    -2.4700 cd         1 4ZF      -0.264000
      9 C06          2.2650    -0.0010    -1.1130 cd         1 4ZF       0.058700
     10 N07          3.6370    -0.0010    -1.0820 na         1 4ZF       0.061600
     11 N08          4.0900    -0.0070    -2.4090 na         1 4ZF       0.102600
     12 C09          1.4120     0.0000     0.0000 cc         1 4ZF      -0.404800
     13 N11         -0.4370     0.0050     1.2330 nd         1 4ZF      -0.587100
     14 C12          0.5720     0.0040     2.1330 ca         1 4ZF       0.082400
     15 C14          1.8110     0.0030     4.1920 ca         1 4ZF      -0.150000
     16 C16          3.0040    -0.0020     2.1080 ca         1 4ZF      -0.105000
     17 H1          -0.5420    -0.5440    -0.7640 h4         1 4ZF      -0.005200
     18 H2          -0.3220     0.0090     4.0970 ha         1 4ZF       0.092000
     19 H3           3.9490    -0.0030     4.0220 ha         1 4ZF       0.083000
     20 H6           0.9990     0.5650    -2.7810 ha         1 4ZF       0.162000
     21 H9           4.2100    -0.0010    -0.2620 hn         1 4ZF       0.176700
     22 H10          5.0470    -0.0080    -2.7020 hn         1 4ZF       0.183700
     23 H12          1.8300     0.0040     5.2750 ha         1 4ZF       0.085000
     24 H13          3.9390    -0.0060     1.5600 ha         1 4ZF       0.069000
     25 C02          3.0240    -0.0020    -4.7180 c          1 4ZF       0.981200
@<TRIPOS>BOND
     1     1    12 1   
     2     1    13 2   
     3     1    17 1   
     4     2    14 ar  
     5     2    15 ar  
     6     2    18 1   
     7     3    15 ar  
     8     3    16 ar  
     9     3    19 1   
    10     4    12 1   
    11     4    14 ar  
    12     4    16 ar  
    13     5    25 1   
    14     6    25 1   
    15     7     8 2   
    16     7    11 1   
    17     7    25 1   
    18     8     9 1   
    19     8    20 1   
    20     9    10 1   
    21     9    12 2   
    22    10    11 1   
    23    10    21 1   
    24    11    22 1   
    25    13    14 1   
    26    15    23 1   
    27    16    24 1   
@<TRIPOS>SUBSTRUCTURE
     1 4ZF         1 TEMP              0 ****  ****    0 ROOT
