@<TRIPOS>MOLECULE
4ZG
   56    58     1     0     0
SMALL
bcc


@<TRIPOS>ATOM
      1 C4           0.0000     0.0000     0.0000 ca         1 4ZG      -0.093900
      2 C5           1.3940     0.0000     0.0000 ca         1 4ZG       0.499200
      3 C11         -3.1260     0.0150     1.8960 c3         1 4ZG      -0.063000
      4 C7           1.4520    -0.0010     2.3150 ca         1 4ZG       0.487200
      5 C8           0.0680     0.0070     2.4060 ca         1 4ZG      -0.290300
      6 C9          -0.6790     0.0050     1.2360 ca         1 4ZG      -0.199200
      7 C12         -3.0970    -1.2780     2.7150 c3         1 4ZG      -0.015600
      8 C13         -2.9800     1.2160     2.8320 c3         1 4ZG      -0.015600
      9 N3          -0.9500    -0.0010    -0.9690 nc         1 4ZG      -0.492100
     10 C1          -3.4330    -0.0020    -1.1830 c3         1 4ZG       0.017600
     11 C2          -2.1320    -0.0020    -0.4240 cd         1 4ZG       0.203800
     12 N6           2.0600     0.0000     1.1350 nb         1 4ZG      -0.570000
     13 N10         -2.0200     0.0080     0.9350 na         1 4ZG       0.309700
     14 N14          2.2160     0.0010     3.4810 nu         1 4ZG      -0.402600
     15 C15          3.5960     0.1110     3.4050 ca         1 4ZG       0.552200
     16 C16          4.3800    -0.0040     4.5550 ca         1 4ZG      -0.486600
     17 C17          5.7510     0.1140     4.4320 ca         1 4ZG       0.519200
     18 N18          6.2780     0.3290     3.2370 nb         1 4ZG      -0.747000
     19 C19          5.5100     0.4330     2.1620 ca         1 4ZG       0.755900
     20 N20          4.1920     0.3220     2.2370 nb         1 4ZG      -0.672000
     21 N21          6.0990     0.6590     0.9310 nu         1 4ZG      -0.526900
     22 C22          7.5560     0.7790     0.8260 c3         1 4ZG       0.206800
     23 C23          7.9450     1.0240    -0.6340 c3         1 4ZG      -0.062200
     24 C24          9.4650     1.1490    -0.7420 c3         1 4ZG       0.021400
     25 C25          7.4670    -0.1500    -1.4920 c3         1 4ZG       0.021400
     26 S26          7.1690     2.5550    -1.2180 s6         1 4ZG       0.800000
     27 O27          5.7590     2.3730    -1.2300 o          1 4ZG      -0.578800
     28 O28          7.7200     3.6470    -0.4940 o          1 4ZG      -0.578800
     29 C29          7.7540     2.6430    -2.9310 c3         1 4ZG       0.007700
     30 H1           1.9320     0.0010    -0.9400 h4         1 4ZG      -0.012900
     31 H2          -4.0710     0.0900     1.3730 h1         1 4ZG       0.047700
     32 H3          -0.4210     0.0060     3.3730 ha         1 4ZG       0.116000
     33 H4          -4.0960    -1.5050     3.0670 hc         1 4ZG       0.017033
     34 H5          -2.7390    -2.0910     2.0950 hc         1 4ZG       0.017033
     35 H6          -2.4350    -1.1520     3.5640 hc         1 4ZG       0.017033
     36 H7          -3.9600     1.5320     3.1690 hc         1 4ZG       0.017033
     37 H8          -2.3780     0.9360     3.6880 hc         1 4ZG       0.017033
     38 H9          -2.5000     2.0300     2.3040 hc         1 4ZG       0.017033
     39 H10         -4.0060    -0.8820    -0.9170 hc         1 4ZG       0.014033
     40 H11         -3.9990     0.8870    -0.9300 hc         1 4ZG       0.014033
     41 H12         -3.2310    -0.0110    -2.2470 hc         1 4ZG       0.014033
     42 H13          1.7690    -0.0780     4.3730 hn         1 4ZG       0.286800
     43 H14          3.9240    -0.1800     5.5220 ha         1 4ZG       0.121000
     44 H15          6.3880     0.0310     5.3040 h4         1 4ZG      -0.025900
     45 H16          5.5310     0.7300     0.1100 hn         1 4ZG       0.344800
     46 H17          8.0200    -0.1360     1.1740 h1         1 4ZG       0.034700
     47 H18          7.8950     1.6100     1.4330 h1         1 4ZG       0.034700
     48 H19          9.7830     2.0830    -0.2960 hc         1 4ZG       0.018367
     49 H20          9.7560     1.1300    -1.7850 hc         1 4ZG       0.018367
     50 H21          9.9330     0.3220    -0.2210 hc         1 4ZG       0.018367
     51 H22          7.5200    -1.0650    -0.9140 hc         1 4ZG       0.018367
     52 H23          8.1000    -0.2380    -2.3670 hc         1 4ZG       0.018367
     53 H24          6.4430     0.0230    -1.8020 hc         1 4ZG       0.018367
     54 H25          8.8300     2.7690    -2.9390 h1         1 4ZG       0.063367
     55 H26          7.2880     3.4840    -3.4300 h1         1 4ZG       0.063367
     56 H27          7.4940     1.7280    -3.4490 h1         1 4ZG       0.063367
@<TRIPOS>BOND
     1     1     2 ar  
     2     1     6 ar  
     3     1     9 1   
     4     2    12 ar  
     5     2    30 1   
     6     3     7 1   
     7     3     8 1   
     8     3    13 1   
     9     3    31 1   
    10     4     5 ar  
    11     4    12 ar  
    12     4    14 1   
    13     5     6 ar  
    14     5    32 1   
    15     6    13 1   
    16     7    33 1   
    17     7    34 1   
    18     7    35 1   
    19     8    36 1   
    20     8    37 1   
    21     8    38 1   
    22     9    11 2   
    23    10    11 1   
    24    10    39 1   
    25    10    40 1   
    26    10    41 1   
    27    11    13 1   
    28    14    15 1   
    29    14    42 1   
    30    15    16 ar  
    31    15    20 ar  
    32    16    17 ar  
    33    16    43 1   
    34    17    18 ar  
    35    17    44 1   
    36    18    19 ar  
    37    19    20 ar  
    38    19    21 1   
    39    21    22 1   
    40    21    45 1   
    41    22    23 1   
    42    22    46 1   
    43    22    47 1   
    44    23    24 1   
    45    23    25 1   
    46    23    26 1   
    47    24    48 1   
    48    24    49 1   
    49    24    50 1   
    50    25    51 1   
    51    25    52 1   
    52    25    53 1   
    53    26    27 2   
    54    26    28 2   
    55    26    29 1   
    56    29    54 1   
    57    29    55 1   
    58    29    56 1   
@<TRIPOS>SUBSTRUCTURE
     1 4ZG         1 TEMP              0 ****  ****    0 ROOT
