@<TRIPOS>MOLECULE
molecule
   56    58     1     0     0
SMALL
bcc


@<TRIPOS>ATOM
      1 C4           0.0000     0.0000     0.0000 ca         1 4ZG      -0.067900
      2 C5           1.3940     0.0000     0.0000 ca         1 4ZG       0.514200
      3 C11         -3.1260     0.0150     1.8960 c3         1 4ZG       0.053000
      4 C7           1.4520    -0.0010     2.3150 ca         1 4ZG       0.684200
      5 C8           0.0680     0.0070     2.4060 ca         1 4ZG      -0.318300
      6 C9          -0.6790     0.0050     1.2360 ca         1 4ZG      -0.034200
      7 C12         -3.0970    -1.2780     2.7150 c3         1 4ZG      -0.109100
      8 C13         -2.9800     1.2160     2.8320 c3         1 4ZG      -0.109100
      9 N3          -0.9500    -0.0010    -0.9690 nc         1 4ZG      -0.585100
     10 C1          -3.4330    -0.0020    -1.1830 c3         1 4ZG      -0.094400
     11 C2          -2.1320    -0.0020    -0.4240 cd         1 4ZG       0.412800
     12 N6           2.0600     0.0000     1.1350 nb         1 4ZG      -0.681000
     13 N10         -2.0200     0.0080     0.9350 na         1 4ZG      -0.152300
     14 N14          2.2160     0.0010     3.4810 nu         1 4ZG      -0.862600
     15 C15          3.5960     0.1110     3.4050 ca         1 4ZG       0.751200
     16 C16          4.3800    -0.0040     4.5550 ca         1 4ZG      -0.498600
     17 C17          5.7510     0.1140     4.4320 ca         1 4ZG       0.519200
     18 N18          6.2780     0.3290     3.2370 nb         1 4ZG      -0.837000
     19 C19          5.5100     0.4330     2.1620 ca         1 4ZG       0.971900
     20 N20          4.1920     0.3220     2.2370 nb         1 4ZG      -0.780000
     21 N21          6.0990     0.6590     0.9310 nu         1 4ZG      -0.915900
     22 C22          7.5560     0.7790     0.8260 c3         1 4ZG       0.276800
     23 C23          7.9450     1.0240    -0.6340 c3         1 4ZG      -0.201200
     24 C24          9.4650     1.1490    -0.7420 c3         1 4ZG      -0.074100
     25 C25          7.4670    -0.1500    -1.4920 c3         1 4ZG      -0.074100
     26 S26          7.1690     2.5550    -1.2180 s6         1 4ZG       1.113000
     27 O27          5.7590     2.3730    -1.2300 o          1 4ZG      -0.609300
     28 O28          7.7200     3.6470    -0.4940 o          1 4ZG      -0.609300
     29 C29          7.7540     2.6430    -2.9310 c3         1 4ZG      -0.230300
     30 H1           1.9320     0.0010    -0.9400 h4         1 4ZG       0.039100
     31 H2          -4.0710     0.0900     1.3730 h1         1 4ZG       0.069700
     32 H3          -0.4210     0.0060     3.3730 ha         1 4ZG       0.129000
     33 H4          -4.0960    -1.5050     3.0670 hc         1 4ZG       0.048700
     34 H5          -2.7390    -2.0910     2.0950 hc         1 4ZG       0.048700
     35 H6          -2.4350    -1.1520     3.5640 hc         1 4ZG       0.048700
     36 H7          -3.9600     1.5320     3.1690 hc         1 4ZG       0.048700
     37 H8          -2.3780     0.9360     3.6880 hc         1 4ZG       0.048700
     38 H9          -2.5000     2.0300     2.3040 hc         1 4ZG       0.048700
     39 H10         -4.0060    -0.8820    -0.9170 hc         1 4ZG       0.057700
     40 H11         -3.9990     0.8870    -0.9300 hc         1 4ZG       0.057700
     41 H12         -3.2310    -0.0110    -2.2470 hc         1 4ZG       0.057700
     42 H13          1.7690    -0.0780     4.3730 hn         1 4ZG       0.462800
     43 H14          3.9240    -0.1800     5.5220 ha         1 4ZG       0.135000
     44 H15          6.3880     0.0310     5.3040 h4         1 4ZG       0.023100
     45 H16          5.5310     0.7300     0.1100 hn         1 4ZG       0.481800
     46 H17          8.0200    -0.1360     1.1740 h1         1 4ZG       0.066700
     47 H18          7.8950     1.6100     1.4330 h1         1 4ZG       0.066700
     48 H19          9.7830     2.0830    -0.2960 hc         1 4ZG       0.052867
     49 H20          9.7560     1.1300    -1.7850 hc         1 4ZG       0.052867
     50 H21          9.9330     0.3220    -0.2210 hc         1 4ZG       0.052867
     51 H22          7.5200    -1.0650    -0.9140 hc         1 4ZG       0.052867
     52 H23          8.1000    -0.2380    -2.3670 hc         1 4ZG       0.052867
     53 H24          6.4430     0.0230    -1.8020 hc         1 4ZG       0.052867
     54 H25          8.8300     2.7690    -2.9390 h1         1 4ZG       0.097700
     55 H26          7.2880     3.4840    -3.4300 h1         1 4ZG       0.097700
     56 H27          7.4940     1.7280    -3.4490 h1         1 4ZG       0.097700
@<TRIPOS>BOND
     1    28    26 2   
     2    27    26 2   
     3    29    26 1   
     4    26    23 1   
     5    18    17 ar  
     6    18    19 ar  
     7    17    16 ar  
     8    21    19 1   
     9    21    22 1   
    10    19    20 ar  
    11    16    15 ar  
    12    23    22 1   
    13    23    25 1   
    14    23    24 1   
    15    20    15 ar  
    16    15    14 1   
    17    14     4 1   
    18     4     5 ar  
    19     4    12 ar  
    20     5     6 ar  
    21    12     2 ar  
    22     7     3 1   
    23     3     8 1   
    24     3    13 1   
    25     6    13 1   
    26     6     1 ar  
    27    13    11 1   
    28     2     1 ar  
    29     1     9 1   
    30    11     9 2   
    31    11    10 1   
    32     2    30 1   
    33     3    31 1   
    34     5    32 1   
    35     7    33 1   
    36     7    34 1   
    37     7    35 1   
    38     8    36 1   
    39     8    37 1   
    40     8    38 1   
    41    10    39 1   
    42    10    40 1   
    43    10    41 1   
    44    14    42 1   
    45    16    43 1   
    46    17    44 1   
    47    21    45 1   
    48    22    46 1   
    49    22    47 1   
    50    24    48 1   
    51    24    49 1   
    52    24    50 1   
    53    25    51 1   
    54    25    52 1   
    55    25    53 1   
    56    29    54 1   
    57    29    55 1   
    58    29    56 1   
@<TRIPOS>SUBSTRUCTURE
     1 4ZG         1 TEMP              0 ****  ****    0 ROOT
