@<TRIPOS>MOLECULE
4ZH
   55    57     1     0     0
SMALL
bcc


@<TRIPOS>ATOM
      1 C4           0.0000     0.0000     0.0000 ca         1 4ZH      -0.088900
      2 C5           1.3930     0.0000     0.0000 ca         1 4ZH       0.498200
      3 C11         -3.1260     0.0140     1.8960 c3         1 4ZH      -0.063000
      4 C7           1.4520    -0.0010     2.3150 ca         1 4ZH       0.478200
      5 C8           0.0680     0.0040     2.4070 ca         1 4ZH      -0.280300
      6 C9          -0.6780     0.0040     1.2360 ca         1 4ZH      -0.201200
      7 C12         -2.9880    -1.1830     2.8390 c3         1 4ZH      -0.015600
      8 C13         -3.0880     1.3100     2.7090 c3         1 4ZH      -0.015600
      9 N3          -0.9510     0.0010    -0.9690 nc         1 4ZH      -0.494100
     10 C1          -3.4330     0.0020    -1.1830 c3         1 4ZH       0.016600
     11 C2          -2.1320     0.0010    -0.4240 cd         1 4ZH       0.210800
     12 N6           2.0600     0.0000     1.1360 nb         1 4ZH      -0.569000
     13 N10         -2.0200     0.0090     0.9350 na         1 4ZH       0.308700
     14 N14          2.2160    -0.0010     3.4810 nu         1 4ZH      -0.399600
     15 C15          3.5970     0.1110     3.4050 ca         1 4ZH       0.543200
     16 C16          4.3810    -0.0050     4.5550 ca         1 4ZH      -0.461600
     17 C17          5.7510     0.1130     4.4300 ca         1 4ZH       0.517200
     18 N18          6.2770     0.3320     3.2340 nb         1 4ZH      -0.745000
     19 C19          5.5080     0.4380     2.1620 ca         1 4ZH       0.860300
     20 N20          4.1920     0.3260     2.2360 nb         1 4ZH      -0.632000
     21 O21          6.0840     0.6610     0.9570 os         1 4ZH      -0.409100
     22 C22          7.5090     0.7700     0.9280 c3         1 4ZH       0.247400
     23 C23          7.9730     1.0200    -0.5080 c3         1 4ZH      -0.052200
     24 C24          7.5320    -0.1450    -1.3970 c3         1 4ZH       0.016900
     25 C25          7.3530     2.3190    -1.0260 c3         1 4ZH       0.016900
     26 S26          9.7810     1.1570    -0.5440 s6         1 4ZH       0.804000
     27 O27         10.1620     2.3190     0.1810 o          1 4ZH      -0.584300
     28 O28         10.3380    -0.0990    -0.1830 o          1 4ZH      -0.584300
     29 C29         10.1010     1.4460    -2.3060 c3         1 4ZH       0.008700
     30 H1           1.9310     0.0010    -0.9400 h4         1 4ZH      -0.012900
     31 H2          -4.0720    -0.0460     1.3720 h1         1 4ZH       0.048700
     32 H3          -0.4210     0.0030     3.3730 ha         1 4ZH       0.117000
     33 H4          -2.4190    -1.9650     2.3500 hc         1 4ZH       0.017367
     34 H5          -2.4750    -0.8750     3.7420 hc         1 4ZH       0.017367
     35 H6          -3.9720    -1.5580     3.0930 hc         1 4ZH       0.017367
     36 H7          -2.4910     1.1600     3.6000 hc         1 4ZH       0.017367
     37 H8          -2.6510     2.0990     2.1090 hc         1 4ZH       0.017367
     38 H9          -4.0960     1.5870     2.9920 hc         1 4ZH       0.017367
     39 H10         -4.0020     0.8870    -0.9240 hc         1 4ZH       0.015700
     40 H11         -4.0030    -0.8830    -0.9240 hc         1 4ZH       0.015700
     41 H12         -3.2310     0.0020    -2.2470 hc         1 4ZH       0.015700
     42 H13          1.7720    -0.1180     4.3700 hn         1 4ZH       0.288800
     43 H14          3.9250    -0.1840     5.5210 ha         1 4ZH       0.125000
     44 H15          6.3890     0.0290     5.3020 h4         1 4ZH      -0.018900
     45 H16          7.9480    -0.1500     1.2940 h1         1 4ZH       0.028700
     46 H17          7.8210     1.5940     1.5570 h1         1 4ZH       0.028700
     47 H18          7.6820     0.1170    -2.4370 hc         1 4ZH       0.020533
     48 H19          6.4820    -0.3530    -1.2250 hc         1 4ZH       0.020533
     49 H20          8.1180    -1.0240    -1.1570 hc         1 4ZH       0.020533
     50 H21          7.5190     2.3990    -2.0930 hc         1 4ZH       0.020533
     51 H22          7.8110     3.1630    -0.5250 hc         1 4ZH       0.020533
     52 H23          6.2880     2.3160    -0.8260 hc         1 4ZH       0.020533
     53 H24          9.5990     2.3530    -2.6210 h1         1 4ZH       0.063700
     54 H25         11.1670     1.5480    -2.4680 h1         1 4ZH       0.063700
     55 H26          9.7270     0.6080    -2.8830 h1         1 4ZH       0.063700
@<TRIPOS>BOND
     1     1     2 ar  
     2     1     6 ar  
     3     1     9 1   
     4     2    12 ar  
     5     2    30 1   
     6     3     7 1   
     7     3     8 1   
     8     3    13 1   
     9     3    31 1   
    10     4     5 ar  
    11     4    12 ar  
    12     4    14 1   
    13     5     6 ar  
    14     5    32 1   
    15     6    13 1   
    16     7    33 1   
    17     7    34 1   
    18     7    35 1   
    19     8    36 1   
    20     8    37 1   
    21     8    38 1   
    22     9    11 2   
    23    10    11 1   
    24    10    39 1   
    25    10    40 1   
    26    10    41 1   
    27    11    13 1   
    28    14    15 1   
    29    14    42 1   
    30    15    16 ar  
    31    15    20 ar  
    32    16    17 ar  
    33    16    43 1   
    34    17    18 ar  
    35    17    44 1   
    36    18    19 ar  
    37    19    20 ar  
    38    19    21 1   
    39    21    22 1   
    40    22    23 1   
    41    22    45 1   
    42    22    46 1   
    43    23    24 1   
    44    23    25 1   
    45    23    26 1   
    46    24    47 1   
    47    24    48 1   
    48    24    49 1   
    49    25    50 1   
    50    25    51 1   
    51    25    52 1   
    52    26    27 2   
    53    26    28 2   
    54    26    29 1   
    55    29    53 1   
    56    29    54 1   
    57    29    55 1   
@<TRIPOS>SUBSTRUCTURE
     1 4ZH         1 TEMP              0 ****  ****    0 ROOT
