@<TRIPOS>MOLECULE
4ZJ
   55    58     1     0     0
SMALL
bcc


@<TRIPOS>ATOM
      1 C4           0.0000     0.0000     0.0000 ca         1 4ZJ      -0.088900
      2 C5           1.3940     0.0000     0.0000 ca         1 4ZJ       0.497200
      3 C11         -3.1260     0.0190     1.8940 c3         1 4ZJ      -0.064000
      4 C7           1.4500     0.0000     2.3160 ca         1 4ZJ       0.481200
      5 C8           0.0670     0.0090     2.4060 ca         1 4ZJ      -0.281300
      6 C9          -0.6790     0.0070     1.2360 ca         1 4ZJ      -0.200200
      7 C12         -2.9900    -1.1770     2.8380 c3         1 4ZJ      -0.016600
      8 C13         -3.0870     1.3150     2.7060 c3         1 4ZJ      -0.016600
      9 N3          -0.9500     0.0000    -0.9700 nc         1 4ZJ      -0.491100
     10 C1          -3.4320     0.0000    -1.1850 c3         1 4ZJ       0.016600
     11 C2          -2.1310     0.0000    -0.4250 cd         1 4ZJ       0.209800
     12 N6           2.0600     0.0000     1.1370 nb         1 4ZJ      -0.577000
     13 N10         -2.0200     0.0110     0.9340 na         1 4ZJ       0.310700
     14 N14          2.2140     0.0020     3.4820 nu         1 4ZJ      -0.400600
     15 C15          3.5950     0.1120     3.4060 ca         1 4ZJ       0.535200
     16 C16          4.3780    -0.0030     4.5570 ca         1 4ZJ      -0.450600
     17 C17          5.7490     0.1140     4.4340 ca         1 4ZJ       0.501200
     18 N18          6.2780     0.3290     3.2380 nb         1 4ZJ      -0.718000
     19 C19          5.5090     0.4320     2.1630 ca         1 4ZJ       0.727900
     20 N20          4.1920     0.3220     2.2380 nb         1 4ZJ      -0.632000
     21 N21          6.1000     0.6560     0.9320 nh         1 4ZJ      -0.426300
     22 C22          7.5610     0.7420     1.0560 c3         1 4ZJ       0.140800
     23 C23          8.1660     1.1340    -0.2930 c3         1 4ZJ      -0.035400
     24 C24          7.7860     0.0850    -1.3420 c3         1 4ZJ       0.144100
     25 C25          6.2600    -0.0190    -1.4170 c3         1 4ZJ       0.164600
     26 C26          5.7090    -0.3770    -0.0350 c3         1 4ZJ       0.110800
     27 F27          5.7270     1.2070    -1.8290 f          1 4ZJ      -0.215300
     28 O28          8.3020     0.4750    -2.6160 os         1 4ZJ      -0.392600
     29 C29          8.6210    -0.6240    -3.4740 c3         1 4ZJ       0.246700
     30 H1           1.9330    -0.0000    -0.9400 h4         1 4ZJ      -0.011900
     31 H2          -4.0730    -0.0400     1.3700 h1         1 4ZJ       0.049700
     32 H3          -0.4220     0.0100     3.3730 ha         1 4ZJ       0.117000
     33 H4          -2.4960    -0.8630     3.7490 hc         1 4ZJ       0.017367
     34 H5          -2.4040    -1.9510     2.3580 hc         1 4ZJ       0.017367
     35 H6          -3.9740    -1.5630     3.0760 hc         1 4ZJ       0.017367
     36 H7          -2.5080     1.1590     3.6080 hc         1 4ZJ       0.017367
     37 H8          -4.0970     1.6060     2.9710 hc         1 4ZJ       0.017367
     38 H9          -2.6290     2.0990     2.1140 hc         1 4ZJ       0.017367
     39 H10         -4.0030    -0.8830    -0.9250 hc         1 4ZJ       0.015367
     40 H11         -3.2290    -0.0010    -2.2490 hc         1 4ZJ       0.015367
     41 H12         -4.0010     0.8860    -0.9280 hc         1 4ZJ       0.015367
     42 H13          1.7690    -0.1070     4.3710 hn         1 4ZJ       0.287800
     43 H14          3.9210    -0.1780     5.5230 ha         1 4ZJ       0.123000
     44 H15          6.3860     0.0300     5.3070 h4         1 4ZJ      -0.020900
     45 H16          7.8150     1.4920     1.7960 h1         1 4ZJ       0.029200
     46 H17          7.9530    -0.2200     1.3610 h1         1 4ZJ       0.029200
     47 H18          9.2450     1.1800    -0.2050 hc         1 4ZJ       0.037200
     48 H19          7.7810     2.1010    -0.5940 hc         1 4ZJ       0.037200
     49 H20          8.1990    -0.8750    -1.0580 h1         1 4ZJ       0.016700
     50 H21          5.9870    -0.7930    -2.1240 h1         1 4ZJ       0.025700
     51 H22          4.6280    -0.4340    -0.0830 h1         1 4ZJ       0.041200
     52 H23          6.1130    -1.3320     0.2760 h1         1 4ZJ       0.041200
     53 H24          9.2950    -1.2980    -2.9610 h1         1 4ZJ      -0.011633
     54 H25          7.7130    -1.1520    -3.7370 h1         1 4ZJ      -0.011633
     55 H26          9.0970    -0.2530    -4.3740 h1         1 4ZJ      -0.011633
@<TRIPOS>BOND
     1     1     2 ar  
     2     1     6 ar  
     3     1     9 1   
     4     2    12 ar  
     5     2    30 1   
     6     3     7 1   
     7     3     8 1   
     8     3    13 1   
     9     3    31 1   
    10     4     5 ar  
    11     4    12 ar  
    12     4    14 1   
    13     5     6 ar  
    14     5    32 1   
    15     6    13 1   
    16     7    33 1   
    17     7    34 1   
    18     7    35 1   
    19     8    36 1   
    20     8    37 1   
    21     8    38 1   
    22     9    11 2   
    23    10    11 1   
    24    10    39 1   
    25    10    40 1   
    26    10    41 1   
    27    11    13 1   
    28    14    15 1   
    29    14    42 1   
    30    15    16 ar  
    31    15    20 ar  
    32    16    17 ar  
    33    16    43 1   
    34    17    18 ar  
    35    17    44 1   
    36    18    19 ar  
    37    19    20 ar  
    38    19    21 1   
    39    21    22 1   
    40    21    26 1   
    41    22    23 1   
    42    22    45 1   
    43    22    46 1   
    44    23    24 1   
    45    23    47 1   
    46    23    48 1   
    47    24    25 1   
    48    24    28 1   
    49    24    49 1   
    50    25    26 1   
    51    25    27 1   
    52    25    50 1   
    53    26    51 1   
    54    26    52 1   
    55    28    29 1   
    56    29    53 1   
    57    29    54 1   
    58    29    55 1   
@<TRIPOS>SUBSTRUCTURE
     1 4ZJ         1 TEMP              0 ****  ****    0 ROOT
