@<TRIPOS>MOLECULE
molecule
   55    58     1     0     0
SMALL
bcc


@<TRIPOS>ATOM
      1 C4           0.0000     0.0000     0.0000 ca         1 4ZJ      -0.064900
      2 C5           1.3940     0.0000     0.0000 ca         1 4ZJ       0.512200
      3 C11         -3.1260     0.0190     1.8940 c3         1 4ZJ       0.052000
      4 C7           1.4500     0.0000     2.3160 ca         1 4ZJ       0.680200
      5 C8           0.0670     0.0090     2.4060 ca         1 4ZJ      -0.313300
      6 C9          -0.6790     0.0070     1.2360 ca         1 4ZJ      -0.034200
      7 C12         -2.9900    -1.1770     2.8380 c3         1 4ZJ      -0.109600
      8 C13         -3.0870     1.3150     2.7060 c3         1 4ZJ      -0.109600
      9 N3          -0.9500     0.0000    -0.9700 nc         1 4ZJ      -0.585100
     10 C1          -3.4320     0.0000    -1.1850 c3         1 4ZJ      -0.095400
     11 C2          -2.1310     0.0000    -0.4250 cd         1 4ZJ       0.415800
     12 N6           2.0600     0.0000     1.1370 nb         1 4ZJ      -0.686000
     13 N10         -2.0200     0.0110     0.9340 na         1 4ZJ      -0.152300
     14 N14          2.2140     0.0020     3.4820 nu         1 4ZJ      -0.862600
     15 C15          3.5950     0.1120     3.4060 ca         1 4ZJ       0.736200
     16 C16          4.3780    -0.0030     4.5570 ca         1 4ZJ      -0.470600
     17 C17          5.7490     0.1140     4.4340 ca         1 4ZJ       0.504200
     18 N18          6.2780     0.3290     3.2380 nb         1 4ZJ      -0.818000
     19 C19          5.5090     0.4320     2.1630 ca         1 4ZJ       0.896900
     20 N20          4.1920     0.3220     2.2380 nb         1 4ZJ      -0.745000
     21 N21          6.1000     0.6560     0.9320 nh         1 4ZJ      -0.668300
     22 C22          7.5610     0.7420     1.0560 c3         1 4ZJ       0.176800
     23 C23          8.1660     1.1340    -0.2930 c3         1 4ZJ      -0.083400
     24 C24          7.7860     0.0850    -1.3420 c3         1 4ZJ       0.112100
     25 C25          6.2600    -0.0190    -1.4170 c3         1 4ZJ       0.155600
     26 C26          5.7090    -0.3770    -0.0350 c3         1 4ZJ       0.145800
     27 F27          5.7270     1.2070    -1.8290 f          1 4ZJ      -0.220300
     28 O28          8.3020     0.4750    -2.6160 os         1 4ZJ      -0.409600
     29 C29          8.6210    -0.6240    -3.4740 c3         1 4ZJ       0.125700
     30 H1           1.9330    -0.0000    -0.9400 h4         1 4ZJ       0.040100
     31 H2          -4.0730    -0.0400     1.3700 h1         1 4ZJ       0.071700
     32 H3          -0.4220     0.0100     3.3730 ha         1 4ZJ       0.130000
     33 H4          -2.4960    -0.8630     3.7490 hc         1 4ZJ       0.049033
     34 H5          -2.4040    -1.9510     2.3580 hc         1 4ZJ       0.049033
     35 H6          -3.9740    -1.5630     3.0760 hc         1 4ZJ       0.049033
     36 H7          -2.5080     1.1590     3.6080 hc         1 4ZJ       0.049033
     37 H8          -4.0970     1.6060     2.9710 hc         1 4ZJ       0.049033
     38 H9          -2.6290     2.0990     2.1140 hc         1 4ZJ       0.049033
     39 H10         -4.0030    -0.8830    -0.9250 hc         1 4ZJ       0.058700
     40 H11         -3.2290    -0.0010    -2.2490 hc         1 4ZJ       0.058700
     41 H12         -4.0010     0.8860    -0.9280 hc         1 4ZJ       0.058700
     42 H13          1.7690    -0.1070     4.3710 hn         1 4ZJ       0.463800
     43 H14          3.9210    -0.1780     5.5230 ha         1 4ZJ       0.138000
     44 H15          6.3860     0.0300     5.3070 h4         1 4ZJ       0.026100
     45 H16          7.8150     1.4920     1.7960 h1         1 4ZJ       0.057200
     46 H17          7.9530    -0.2200     1.3610 h1         1 4ZJ       0.057200
     47 H18          9.2450     1.1800    -0.2050 hc         1 4ZJ       0.069700
     48 H19          7.7810     2.1010    -0.5940 hc         1 4ZJ       0.069700
     49 H20          8.1990    -0.8750    -1.0580 h1         1 4ZJ       0.040700
     50 H21          5.9870    -0.7930    -2.1240 h1         1 4ZJ       0.053700
     51 H22          4.6280    -0.4340    -0.0830 h1         1 4ZJ       0.068200
     52 H23          6.1130    -1.3320     0.2760 h1         1 4ZJ       0.068200
     53 H24          9.2950    -1.2980    -2.9610 h1         1 4ZJ       0.030367
     54 H25          7.7130    -1.1520    -3.7370 h1         1 4ZJ       0.030367
     55 H26          9.0970    -0.2530    -4.3740 h1         1 4ZJ       0.030367
@<TRIPOS>BOND
     1    27    25 1   
     2    25    26 1   
     3    25    24 1   
     4    28    29 1   
     5    28    24 1   
     6    26    21 1   
     7    24    23 1   
     8    18    17 ar  
     9    18    19 ar  
    10    17    16 ar  
    11    21    19 1   
    12    21    22 1   
    13    23    22 1   
    14    19    20 ar  
    15    16    15 ar  
    16    20    15 ar  
    17    15    14 1   
    18    14     4 1   
    19     4     5 ar  
    20     4    12 ar  
    21     5     6 ar  
    22     8     3 1   
    23     3     7 1   
    24     3    13 1   
    25    12     2 ar  
    26     6    13 1   
    27     6     1 ar  
    28    13    11 1   
    29     2     1 ar  
    30     1     9 1   
    31    11     9 2   
    32    11    10 1   
    33     2    30 1   
    34     3    31 1   
    35     5    32 1   
    36     7    33 1   
    37     7    34 1   
    38     7    35 1   
    39     8    36 1   
    40     8    37 1   
    41     8    38 1   
    42    10    39 1   
    43    10    40 1   
    44    10    41 1   
    45    14    42 1   
    46    16    43 1   
    47    17    44 1   
    48    22    45 1   
    49    22    46 1   
    50    23    47 1   
    51    23    48 1   
    52    24    49 1   
    53    25    50 1   
    54    26    51 1   
    55    26    52 1   
    56    29    53 1   
    57    29    54 1   
    58    29    55 1   
@<TRIPOS>SUBSTRUCTURE
     1 4ZJ         1 TEMP              0 ****  ****    0 ROOT
