@<TRIPOS>MOLECULE
molecule
   33    34     1     0     0
SMALL
bcc


@<TRIPOS>ATOM
      1 N1           0.0000     0.0000     0.0000 nz         1 4ZK      -0.801600
      2 C4           1.5800     1.1890    -2.1740 ca         1 4ZK      -0.085300
      3 C5           2.4180     0.5900    -3.0930 ca         1 4ZK      -0.121000
      4 C6           0.3730     1.7280    -2.5810 ca         1 4ZK      -0.135000
      5 C7          -0.0030     1.6700    -3.9120 ca         1 4ZK       0.031400
      6 C8           0.8280     1.0720    -4.8410 ca         1 4ZK       0.035400
      7 C10          2.9430    -0.1140    -5.4270 cp         1 4ZK      -0.175300
      8 C13          4.6560    -1.2370    -7.2280 ca         1 4ZK       0.413200
      9 C1           1.9720     0.0000     1.4210 c          1 4ZK       0.865600
     10 O2           3.2250    -0.3970     1.6890 o          1 4ZK      -0.765300
     11 C2           1.4690     0.0000     0.0000 c3         1 4ZK       0.046500
     12 C3           1.9790     1.2500    -0.7220 c3         1 4ZK      -0.177100
     13 Cl1         -1.5190     2.3480    -4.4140 cl         1 4ZK      -0.070400
     14 Cl2          0.3570     1.0010    -6.5100 cl         1 4ZK      -0.057400
     15 C9           2.0470     0.5290    -4.4340 cp         1 4ZK      -0.004000
     16 C11          2.4480    -1.0720    -6.3150 ca         1 4ZK      -0.098000
     17 C12          4.2910     0.2330    -5.4920 ca         1 4ZK       0.435200
     18 N2           5.0900    -0.3300    -6.3750 nb         1 4ZK      -0.670000
     19 C14          3.3270    -1.6390    -7.2280 ca         1 4ZK      -0.017200
     20 O3           2.8910    -2.5740    -8.1120 oh         1 4ZK      -0.510100
     21 H1          -0.3340    -0.6280     0.7050 hn         1 4ZK       0.440467
     22 H2          -0.3340     0.9240     0.1910 hn         1 4ZK       0.440467
     23 H4           3.3630     0.1690    -2.7730 ha         1 4ZK       0.160000
     24 H5          -0.2810     2.1960    -1.8550 ha         1 4ZK       0.146000
     25 H6           5.3470    -1.6760    -7.9380 h4         1 4ZK       0.038100
     26 H8           1.8300    -0.8850    -0.5110 hx         1 4ZK       0.082700
     27 H9           2.3650     0.2720    -0.9850 hc         1 4ZK       0.132200
     28 H10          2.8720     1.7770    -0.4100 hc         1 4ZK       0.132200
     29 H11          1.4050    -1.3650    -6.2920 ha         1 4ZK       0.156000
     30 H12          4.6870     0.9750    -4.8080 h4         1 4ZK       0.033100
     31 H13          2.9600    -3.4300    -7.7230 ho         1 4ZK       0.423000
     32 H131        -0.3340    -0.3060    -0.8930 hn         1 4ZK       0.440467
     33 O1           1.2470     0.3590     2.3180 o          1 4ZK      -0.765300
@<TRIPOS>BOND
     1    10     9 1   
     2    33     9 1   
     3     9    11 1   
     4    11    12 1   
     5    11     1 1   
     6    12     2 1   
     7     2     4 ar  
     8     2     3 ar  
     9     4     5 ar  
    10     3    15 ar  
    11     5    13 1   
    12     5     6 ar  
    13    15     6 ar  
    14    15     7 1   
    15     6    14 1   
    16     7    17 ar  
    17     7    16 ar  
    18    17    18 ar  
    19    16    19 ar  
    20    18     8 ar  
    21    19     8 ar  
    22    19    20 1   
    23     1    21 1   
    24     1    22 1   
    25     3    23 1   
    26     4    24 1   
    27     8    25 1   
    28    11    26 1   
    29    12    27 1   
    30    12    28 1   
    31    16    29 1   
    32    17    30 1   
    33    20    31 1   
    34    32     1 1   
@<TRIPOS>SUBSTRUCTURE
     1 4ZK         1 TEMP              0 ****  ****    0 ROOT
