@<TRIPOS>MOLECULE
4ZK
   33    34     1     0     0
SMALL
bcc


@<TRIPOS>ATOM
      1 N1           0.0000     0.0000     0.0000 nz         1 4ZK       0.038400
      2 C4           1.5800     1.1890    -2.1740 ca         1 4ZK      -0.081300
      3 C5           2.4180     0.5900    -3.0930 ca         1 4ZK      -0.093000
      4 C6           0.3730     1.7280    -2.5810 ca         1 4ZK      -0.118000
      5 C7          -0.0030     1.6700    -3.9120 ca         1 4ZK      -0.038600
      6 C8           0.8280     1.0720    -4.8410 ca         1 4ZK      -0.040600
      7 C10          2.9430    -0.1140    -5.4270 cp         1 4ZK      -0.160300
      8 C13          4.6560    -1.2370    -7.2280 ca         1 4ZK       0.383200
      9 C1           1.9720     0.0000     1.4210 c          1 4ZK       0.948600
     10 O2           3.2250    -0.3970     1.6890 o          1 4ZK      -0.810300
     11 C2           1.4690     0.0000     0.0000 c3         1 4ZK      -0.106500
     12 C3           1.9790     1.2500    -0.7220 c3         1 4ZK      -0.139100
     13 Cl1         -1.5190     2.3480    -4.4140 cl         1 4ZK       0.016600
     14 Cl2          0.3570     1.0010    -6.5100 cl         1 4ZK       0.033600
     15 C9           2.0470     0.5290    -4.4340 cp         1 4ZK       0.006000
     16 C11          2.4480    -1.0720    -6.3150 ca         1 4ZK      -0.103000
     17 C12          4.2910     0.2330    -5.4920 ca         1 4ZK       0.409200
     18 N2           5.0900    -0.3300    -6.3750 nb         1 4ZK      -0.554000
     19 C14          3.3270    -1.6390    -7.2280 ca         1 4ZK       0.012800
     20 O3           2.8910    -2.5740    -8.1120 oh         1 4ZK      -0.488100
     21 H1          -0.3340    -0.6280     0.7050 hn         1 4ZK       0.218467
     22 H2          -0.3340     0.9240     0.1910 hn         1 4ZK       0.218467
     23 H4           3.3630     0.1690    -2.7730 ha         1 4ZK       0.132000
     24 H5          -0.2810     2.1960    -1.8550 ha         1 4ZK       0.117000
     25 H6           5.3470    -1.6760    -7.9380 h4         1 4ZK      -0.006900
     26 H8           1.8300    -0.8850    -0.5110 hx         1 4ZK       0.065700
     27 H9           2.3650     0.2720    -0.9850 hc         1 4ZK       0.104200
     28 H10          2.8720     1.7770    -0.4100 hc         1 4ZK       0.104200
     29 H11          1.4050    -1.3650    -6.2920 ha         1 4ZK       0.127000
     30 H12          4.6870     0.9750    -4.8080 h4         1 4ZK      -0.010900
     31 H13          2.9600    -3.4300    -7.7230 ho         1 4ZK       0.407000
     32 H131        -0.3340    -0.3060    -0.8930 hn         1 4ZK       0.218467
     33 O1           1.2470     0.3590     2.3180 o          1 4ZK      -0.810300
@<TRIPOS>BOND
     1     1    11 1   
     2     1    21 1   
     3     1    22 1   
     4     1    32 1   
     5     2     3 ar  
     6     2     4 ar  
     7     2    12 1   
     8     3    15 ar  
     9     3    23 1   
    10     4     5 ar  
    11     4    24 1   
    12     5     6 ar  
    13     5    13 1   
    14     6    14 1   
    15     6    15 ar  
    16     7    15 1   
    17     7    16 ar  
    18     7    17 ar  
    19     8    18 ar  
    20     8    19 ar  
    21     8    25 1   
    22     9    10 1   
    23     9    11 1   
    24     9    33 1   
    25    11    12 1   
    26    11    26 1   
    27    12    27 1   
    28    12    28 1   
    29    16    19 ar  
    30    16    29 1   
    31    17    18 ar  
    32    17    30 1   
    33    19    20 1   
    34    20    31 1   
@<TRIPOS>SUBSTRUCTURE
     1 4ZK         1 TEMP              0 ****  ****    0 ROOT
