@<TRIPOS>MOLECULE
molecule
   33    33     1     0     0
SMALL
bcc


@<TRIPOS>ATOM
      1 CAA          0.0000     0.0000     0.0000 ca         1 4ZL      -0.111000
      2 CAB          1.3820     0.0000     0.0000 ca         1 4ZL      -0.131000
      3 CAC          2.0730     0.0000     1.1970 ca         1 4ZL      -0.119000
      4 CAD          1.3830     0.0000     2.3940 ca         1 4ZL      -0.131000
      5 CAE          0.0010    -0.0010     2.3940 ca         1 4ZL      -0.111000
      6 CAF         -0.6910     0.0060     1.1970 ca         1 4ZL      -0.120300
      7 CAG         -2.1980     0.0050     1.1980 c3         1 4ZL       0.180300
      8 NAH         -2.6870     1.3850     1.2050 ns         1 4ZL      -0.599900
      9 CAI         -4.0120     1.6310     1.2070 c          1 4ZL       0.785100
     10 OAO         -4.8020     0.7070     1.2020 o          1 4ZL      -0.663100
     11 NAJ         -4.4620     2.9010     1.2140 ns         1 4ZL      -0.605900
     12 CAK         -5.9030     3.1680     1.2150 c3         1 4ZL       0.089000
     13 CAL         -6.1370     4.6570     1.2240 c          1 4ZL       0.625100
     14 OAQ         -5.1980     5.4160     1.2280 o          1 4ZL      -0.558000
     15 OAM         -7.3900     5.1390     1.2260 os         1 4ZL      -0.425900
     16 CAN         -7.5410     6.5830     1.2350 c3         1 4ZL       0.147400
     17 CAP         -9.0290     6.9400     1.2360 c3         1 4ZL      -0.096100
     18 H1          -0.5420     0.0030    -0.9380 ha         1 4ZL       0.135000
     19 H2           1.9230    -0.0020    -0.9380 ha         1 4ZL       0.132000
     20 H3           3.1570     0.0000     1.1970 ha         1 4ZL       0.131000
     21 H4           1.9250    -0.0030     3.3320 ha         1 4ZL       0.132000
     22 H5          -0.5410     0.0010     3.3320 ha         1 4ZL       0.135000
     23 H6          -2.5580    -0.5110     2.0800 h1         1 4ZL       0.058700
     24 H7          -2.5590    -0.5020     0.3110 h1         1 4ZL       0.058700
     25 H8          -2.0370     2.1460     1.2080 hn         1 4ZL       0.314500
     26 H9          -3.8120     3.6620     1.2270 hn         1 4ZL       0.331500
     27 H10         -6.3510     2.7370     0.3280 h1         1 4ZL       0.084200
     28 H11         -6.3510     2.7270     2.0970 h1         1 4ZL       0.084200
     29 H12         -7.0710     7.0000     0.3520 h1         1 4ZL       0.050700
     30 H13         -7.0710     6.9900     2.1210 h1         1 4ZL       0.050700
     31 H14         -9.5000     6.5330     0.3490 hc         1 4ZL       0.049367
     32 H15         -9.5000     6.5230     2.1180 hc         1 4ZL       0.049367
     33 H16         -9.1420     8.0170     1.2420 hc         1 4ZL       0.049367
@<TRIPOS>BOND
     1    10     9 2   
     2     7     8 1   
     3     7     6 1   
     4     9     8 1   
     5     9    11 1   
     6     5     6 ar  
     7     5     4 ar  
     8     6     1 ar  
     9    12    11 1   
    10    12    13 1   
    11     4     3 ar  
    12    15    13 1   
    13    15    16 1   
    14    13    14 2   
    15     1     2 ar  
    16    17    16 1   
    17     3     2 ar  
    18     1    18 1   
    19     2    19 1   
    20     3    20 1   
    21     4    21 1   
    22     5    22 1   
    23     7    23 1   
    24     7    24 1   
    25     8    25 1   
    26    11    26 1   
    27    12    27 1   
    28    12    28 1   
    29    16    29 1   
    30    16    30 1   
    31    17    31 1   
    32    17    32 1   
    33    17    33 1   
@<TRIPOS>SUBSTRUCTURE
     1 4ZL         1 TEMP              0 ****  ****    0 ROOT
