@<TRIPOS>MOLECULE
4ZL
   33    33     1     0     0
SMALL
bcc


@<TRIPOS>ATOM
      1 CAA          0.0000     0.0000     0.0000 ca         1 4ZL      -0.083000
      2 CAB          1.3820     0.0000     0.0000 ca         1 4ZL      -0.103000
      3 CAC          2.0730     0.0000     1.1970 ca         1 4ZL      -0.092000
      4 CAD          1.3830     0.0000     2.3940 ca         1 4ZL      -0.103000
      5 CAE          0.0010    -0.0010     2.3940 ca         1 4ZL      -0.083000
      6 CAF         -0.6910     0.0060     1.1970 ca         1 4ZL      -0.127300
      7 CAG         -2.1980     0.0050     1.1980 c3         1 4ZL       0.128300
      8 NAH         -2.6870     1.3850     1.2050 ns         1 4ZL      -0.214900
      9 CAI         -4.0120     1.6310     1.2070 c          1 4ZL       0.580100
     10 OAO         -4.8020     0.7070     1.2020 o          1 4ZL      -0.712100
     11 NAJ         -4.4620     2.9010     1.2140 ns         1 4ZL      -0.224900
     12 CAK         -5.9030     3.1680     1.2150 c3         1 4ZL       0.025000
     13 CAL         -6.1370     4.6570     1.2240 c          1 4ZL       0.691100
     14 OAQ         -5.1980     5.4160     1.2280 o          1 4ZL      -0.597000
     15 OAM         -7.3900     5.1390     1.2260 os         1 4ZL      -0.407900
     16 CAN         -7.5410     6.5830     1.2350 c3         1 4ZL       0.228400
     17 CAP         -9.0290     6.9400     1.2360 c3         1 4ZL      -0.003100
     18 H1          -0.5420     0.0030    -0.9380 ha         1 4ZL       0.108000
     19 H2           1.9230    -0.0020    -0.9380 ha         1 4ZL       0.104500
     20 H3           3.1570     0.0000     1.1970 ha         1 4ZL       0.103000
     21 H4           1.9250    -0.0030     3.3320 ha         1 4ZL       0.104500
     22 H5          -0.5410     0.0010     3.3320 ha         1 4ZL       0.108000
     23 H6          -2.5580    -0.5110     2.0800 h1         1 4ZL       0.027700
     24 H7          -2.5590    -0.5020     0.3110 h1         1 4ZL       0.027700
     25 H8          -2.0370     2.1460     1.2080 hn         1 4ZL       0.172500
     26 H9          -3.8120     3.6620     1.2270 hn         1 4ZL       0.195500
     27 H10         -6.3510     2.7370     0.3280 h1         1 4ZL       0.046700
     28 H11         -6.3510     2.7270     2.0970 h1         1 4ZL       0.046700
     29 H12         -7.0710     7.0000     0.3520 h1         1 4ZL       0.009700
     30 H13         -7.0710     6.9900     2.1210 h1         1 4ZL       0.009700
     31 H14         -9.5000     6.5330     0.3490 hc         1 4ZL       0.011700
     32 H15         -9.5000     6.5230     2.1180 hc         1 4ZL       0.011700
     33 H16         -9.1420     8.0170     1.2420 hc         1 4ZL       0.011700
@<TRIPOS>BOND
     1     1     2 ar  
     2     1     6 ar  
     3     1    18 1   
     4     2     3 ar  
     5     2    19 1   
     6     3     4 ar  
     7     3    20 1   
     8     4     5 ar  
     9     4    21 1   
    10     5     6 ar  
    11     5    22 1   
    12     6     7 1   
    13     7     8 1   
    14     7    23 1   
    15     7    24 1   
    16     8     9 1   
    17     8    25 1   
    18     9    10 2   
    19     9    11 1   
    20    11    12 1   
    21    11    26 1   
    22    12    13 1   
    23    12    27 1   
    24    12    28 1   
    25    13    14 2   
    26    13    15 1   
    27    15    16 1   
    28    16    17 1   
    29    16    29 1   
    30    16    30 1   
    31    17    31 1   
    32    17    32 1   
    33    17    33 1   
@<TRIPOS>SUBSTRUCTURE
     1 4ZL         1 TEMP              0 ****  ****    0 ROOT
