@<TRIPOS>MOLECULE
4ZM
   42    43     1     0     0
SMALL
bcc


@<TRIPOS>ATOM
      1 N            0.0000     0.0000     0.0000 ns         1 4ZM      -0.224900
      2 C            5.2250     0.0140    -3.1400 c3         1 4ZM      -0.003100
      3 O            3.2860     0.0080    -1.6670 os         1 4ZM      -0.407900
      4 N1          -2.0220     0.0060     1.1690 ns         1 4ZM      -0.216900
      5 C1           3.6980     0.0140    -3.0590 c3         1 4ZM       0.227400
      6 O1           1.1810     0.0110    -2.3390 o          1 4ZM      -0.597000
      7 N2          -8.3880    -4.8110     1.3830 nb         1 4ZM      -0.585000
      8 C2           1.9660     0.0070    -1.4210 c          1 4ZM       0.691100
      9 O2          -0.0660    -0.0040     2.2210 o          1 4ZM      -0.711100
     10 C3           1.4650     0.0000     0.0000 c3         1 4ZM       0.025000
     11 C4          -0.6740     0.0000     1.1680 c          1 4ZM       0.580100
     12 C5          -2.7540     0.0060     2.4370 c3         1 4ZM       0.128300
     13 C6          -4.2350     0.0120     2.1620 ca         1 4ZM      -0.124300
     14 C7          -4.9180    -1.1800     2.0340 ca         1 4ZM      -0.076000
     15 C8          -6.2880    -1.1730     1.7810 cp         1 4ZM      -0.041000
     16 C11         -4.9100     1.2150     2.0440 ca         1 4ZM      -0.078000
     17 C10         -6.2710     1.2280     1.7920 ca         1 4ZM      -0.100000
     18 C9          -6.9610     0.0410     1.6580 ca         1 4ZM      -0.085000
     19 C12         -7.0270    -2.4520     1.6420 cp         1 4ZM       0.003000
     20 C16         -8.4000    -2.4630     1.3870 ca         1 4ZM      -0.223300
     21 C15         -9.0490    -3.6760     1.2640 ca         1 4ZM       0.410200
     22 C14         -7.0910    -4.8450     1.6240 ca         1 4ZM       0.410200
     23 C13         -6.3660    -3.6780     1.7610 ca         1 4ZM      -0.223300
     24 H1          -0.5000    -0.0030    -0.8670 hn         1 4ZM       0.195500
     25 H2           5.6130     0.8970    -2.6450 hc         1 4ZM       0.012033
     26 H3           5.6130    -0.8720    -2.6530 hc         1 4ZM       0.012033
     27 H4           5.5320     0.0190    -4.1790 hc         1 4ZM       0.012033
     28 H5          -2.5230     0.0080     0.3020 hn         1 4ZM       0.173500
     29 H6           3.3100     0.9000    -3.5470 h1         1 4ZM       0.009700
     30 H7           3.3100    -0.8690    -3.5540 h1         1 4ZM       0.009700
     31 H8           1.8260     0.8820     0.5150 h1         1 4ZM       0.047200
     32 H9           1.8260    -0.8870     0.5060 h1         1 4ZM       0.047200
     33 H10         -2.4890     0.8890     3.0070 h1         1 4ZM       0.028700
     34 H11         -2.4960    -0.8800     3.0030 h1         1 4ZM       0.028700
     35 H12         -4.3890    -2.1210     2.1310 ha         1 4ZM       0.117000
     36 H13         -4.3720     2.1490     2.1500 ha         1 4ZM       0.110000
     37 H14         -6.7950     2.1710     1.6990 ha         1 4ZM       0.107000
     38 H15         -8.0260     0.0520     1.4610 ha         1 4ZM       0.112000
     39 H16         -8.9480    -1.5340     1.2870 ha         1 4ZM       0.120000
     40 H17        -10.1140    -3.6950     1.0660 h4         1 4ZM      -0.019900
     41 H18         -6.5890    -5.8000     1.7140 h4         1 4ZM      -0.019900
     42 H19         -5.3020    -3.7130     1.9580 ha         1 4ZM       0.120000
@<TRIPOS>BOND
     1     1    10 1   
     2     1    11 1   
     3     1    24 1   
     4     2     5 1   
     5     2    25 1   
     6     2    26 1   
     7     2    27 1   
     8     3     5 1   
     9     3     8 1   
    10     4    11 1   
    11     4    12 1   
    12     4    28 1   
    13     5    29 1   
    14     5    30 1   
    15     6     8 2   
    16     7    21 ar  
    17     7    22 ar  
    18     8    10 1   
    19     9    11 2   
    20    10    31 1   
    21    10    32 1   
    22    12    13 1   
    23    12    33 1   
    24    12    34 1   
    25    13    14 ar  
    26    13    16 ar  
    27    14    15 ar  
    28    14    35 1   
    29    15    18 ar  
    30    15    19 1   
    31    16    17 ar  
    32    16    36 1   
    33    17    18 ar  
    34    17    37 1   
    35    18    38 1   
    36    19    20 ar  
    37    19    23 ar  
    38    20    21 ar  
    39    20    39 1   
    40    21    40 1   
    41    22    23 ar  
    42    22    41 1   
    43    23    42 1   
@<TRIPOS>SUBSTRUCTURE
     1 4ZM         1 TEMP              0 ****  ****    0 ROOT
