@<TRIPOS>MOLECULE
4ZO
   40    40     1     0     0
SMALL
bcc


@<TRIPOS>ATOM
      1 C3           0.0000     0.0000     0.0000 c          1 4ZO       0.560100
      2 C5           1.5070     0.0000     0.0000 c3         1 4ZO      -0.068100
      3 CAA         -4.1900    -0.3880     0.1660 ca         1 4ZO      -0.066000
      4 CAB         -2.8130    -0.4910     0.1600 ca         1 4ZO      -0.121000
      5 CAC         -2.0690     0.1030     1.1700 ca         1 4ZO      -0.083400
      6 CAD         -2.7130     0.8010     2.1840 ca         1 4ZO      -0.121000
      7 CAE         -4.0900     0.9010     2.1850 ca         1 4ZO      -0.066000
      8 CAF         -4.8280     0.3080     1.1760 ca         1 4ZO      -0.141300
      9 CAG         -6.3310     0.4200     1.1790 c3         1 4ZO       0.130300
     10 NAH         -6.9030    -0.7050     1.9250 ns         1 4ZO      -0.214900
     11 CAI         -8.2390    -0.8130     2.0600 c          1 4ZO       0.579100
     12 OAO         -8.9710     0.0230     1.5640 o          1 4ZO      -0.712100
     13 NAJ         -8.7660    -1.8470     2.7450 ns         1 4ZO      -0.224900
     14 CAK        -10.2180    -1.9650     2.8930 c3         1 4ZO       0.026000
     15 CAL        -10.5440    -3.1970     3.6960 c          1 4ZO       0.691100
     16 OAQ         -9.6530    -3.9060     4.1040 o          1 4ZO      -0.599000
     17 OAM        -11.8230    -3.5100     3.9590 os         1 4ZO      -0.407900
     18 CAN        -12.0620    -4.7120     4.7370 c3         1 4ZO       0.228400
     19 CAP        -13.5670    -4.9020     4.9330 c3         1 4ZO      -0.003100
     20 N2          -0.6740     0.0000     1.1680 ns         1 4ZO      -0.041100
     21 O4          -0.6070     0.0050    -1.0500 o          1 4ZO      -0.631100
     22 H1           1.8680     0.9710     0.3160 hc         1 4ZO       0.024367
     23 H2           1.8680    -0.2120    -0.9990 hc         1 4ZO       0.024367
     24 H3           1.8680    -0.7590     0.6830 hc         1 4ZO       0.024367
     25 H5          -2.3130    -1.0360    -0.6320 ha         1 4ZO       0.127000
     26 H6          -2.1360     1.2660     2.9740 ha         1 4ZO       0.127000
     27 H7          -4.5930     1.4450     2.9750 ha         1 4ZO       0.109500
     28 H8          -6.6230     1.3510     1.6490 h1         1 4ZO       0.028700
     29 H9          -6.6970     0.4000     0.1600 h1         1 4ZO       0.028700
     30 H10         -6.3010    -1.3730     2.3620 hn         1 4ZO       0.171500
     31 H11         -8.1640    -2.5360     3.1510 hn         1 4ZO       0.194500
     32 H12        -10.6760    -2.0400     1.9140 h1         1 4ZO       0.047200
     33 H13        -10.6010    -1.0900     3.4050 h1         1 4ZO       0.047200
     34 H14        -11.5810    -4.6180     5.7030 h1         1 4ZO       0.009700
     35 H15        -11.6550    -5.5680     4.2120 h1         1 4ZO       0.009700
     36 H16        -14.0480    -4.9960     3.9660 hc         1 4ZO       0.012033
     37 H17        -13.9740    -4.0460     5.4570 hc         1 4ZO       0.012033
     38 H18        -13.7450    -5.7990     5.5130 hc         1 4ZO       0.012033
     39 H19         -0.1790    -0.1130     2.0310 hn         1 4ZO       0.168500
     40 H4          -4.7710    -0.8510    -0.6220 ha         1 4ZO       0.109500
@<TRIPOS>BOND
     1     1     2 1   
     2     1    20 1   
     3     1    21 2   
     4     2    22 1   
     5     2    23 1   
     6     2    24 1   
     7     3     4 ar  
     8     3     8 ar  
     9     3    40 1   
    10     4     5 ar  
    11     4    25 1   
    12     5     6 ar  
    13     5    20 1   
    14     6     7 ar  
    15     6    26 1   
    16     7     8 ar  
    17     7    27 1   
    18     8     9 1   
    19     9    10 1   
    20     9    28 1   
    21     9    29 1   
    22    10    11 1   
    23    10    30 1   
    24    11    12 2   
    25    11    13 1   
    26    13    14 1   
    27    13    31 1   
    28    14    15 1   
    29    14    32 1   
    30    14    33 1   
    31    15    16 2   
    32    15    17 1   
    33    17    18 1   
    34    18    19 1   
    35    18    34 1   
    36    18    35 1   
    37    19    36 1   
    38    19    37 1   
    39    19    38 1   
    40    20    39 1   
@<TRIPOS>SUBSTRUCTURE
     1 4ZO         1 TEMP              0 ****  ****    0 ROOT
