@<TRIPOS>MOLECULE
molecule
   40    40     1     0     0
SMALL
bcc


@<TRIPOS>ATOM
      1 C3           0.0000     0.0000     0.0000 c          1 4ZO       0.658100
      2 C5           1.5070     0.0000     0.0000 c3         1 4ZO      -0.170100
      3 CAA         -4.1900    -0.3880     0.1660 ca         1 4ZO      -0.096000
      4 CAB         -2.8130    -0.4910     0.1600 ca         1 4ZO      -0.148000
      5 CAC         -2.0690     0.1030     1.1700 ca         1 4ZO       0.062600
      6 CAD         -2.7130     0.8010     2.1840 ca         1 4ZO      -0.148000
      7 CAE         -4.0900     0.9010     2.1850 ca         1 4ZO      -0.096000
      8 CAF         -4.8280     0.3080     1.1760 ca         1 4ZO      -0.137300
      9 CAG         -6.3310     0.4200     1.1790 c3         1 4ZO       0.181300
     10 NAH         -6.9030    -0.7050     1.9250 ns         1 4ZO      -0.599900
     11 CAI         -8.2390    -0.8130     2.0600 c          1 4ZO       0.784100
     12 OAO         -8.9710     0.0230     1.5640 o          1 4ZO      -0.664100
     13 NAJ         -8.7660    -1.8470     2.7450 ns         1 4ZO      -0.605900
     14 CAK        -10.2180    -1.9650     2.8930 c3         1 4ZO       0.090000
     15 CAL        -10.5440    -3.1970     3.6960 c          1 4ZO       0.624100
     16 OAQ         -9.6530    -3.9060     4.1040 o          1 4ZO      -0.560000
     17 OAM        -11.8230    -3.5100     3.9590 os         1 4ZO      -0.424900
     18 CAN        -12.0620    -4.7120     4.7370 c3         1 4ZO       0.147400
     19 CAP        -13.5670    -4.9020     4.9330 c3         1 4ZO      -0.096100
     20 N2          -0.6740     0.0000     1.1680 ns         1 4ZO      -0.483100
     21 O4          -0.6070     0.0050    -1.0500 o          1 4ZO      -0.591100
     22 H1           1.8680     0.9710     0.3160 hc         1 4ZO       0.064033
     23 H2           1.8680    -0.2120    -0.9990 hc         1 4ZO       0.064033
     24 H3           1.8680    -0.7590     0.6830 hc         1 4ZO       0.064033
     25 H5          -2.3130    -1.0360    -0.6320 ha         1 4ZO       0.150000
     26 H6          -2.1360     1.2660     2.9740 ha         1 4ZO       0.150000
     27 H7          -4.5930     1.4450     2.9750 ha         1 4ZO       0.139000
     28 H8          -6.6230     1.3510     1.6490 h1         1 4ZO       0.058700
     29 H9          -6.6970     0.4000     0.1600 h1         1 4ZO       0.058700
     30 H10         -6.3010    -1.3730     2.3620 hn         1 4ZO       0.313500
     31 H11         -8.1640    -2.5360     3.1510 hn         1 4ZO       0.331500
     32 H12        -10.6760    -2.0400     1.9140 h1         1 4ZO       0.084200
     33 H13        -10.6010    -1.0900     3.4050 h1         1 4ZO       0.084200
     34 H14        -11.5810    -4.6180     5.7030 h1         1 4ZO       0.050200
     35 H15        -11.6550    -5.5680     4.2120 h1         1 4ZO       0.050200
     36 H16        -14.0480    -4.9960     3.9660 hc         1 4ZO       0.049367
     37 H17        -13.9740    -4.0460     5.4570 hc         1 4ZO       0.049367
     38 H18        -13.7450    -5.7990     5.5130 hc         1 4ZO       0.049367
     39 H19         -0.1790    -0.1130     2.0310 hn         1 4ZO       0.324500
     40 H4          -4.7710    -0.8510    -0.6220 ha         1 4ZO       0.139000
@<TRIPOS>BOND
     1    12    11 2
     2     9    10 1
     3     9     8 1
     4    11    10 1
     5    11    13 1
     6     3     8 ar
     7     3     4 ar
     8     8     7 ar
     9    14    13 1
    10    14    15 1
    11     4     5 ar
    12    17    15 1
    13    17    18 1
    14    15    16 2
    15    19    18 1
    16     7     6 ar
    17     5     6 ar
    18     5    20 1
    19     2     1 1
    20    20     1 1
    21     1    21 2
    22     2    22 1
    23     2    23 1
    24     2    24 1
    25     3    40 1
    26     4    25 1
    27     6    26 1
    28     7    27 1
    29     9    28 1
    30     9    29 1
    31    10    30 1
    32    13    31 1
    33    14    32 1
    34    14    33 1
    35    18    34 1
    36    18    35 1
    37    19    36 1
    38    19    37 1
    39    19    38 1
    40    20    39 1
@<TRIPOS>SUBSTRUCTURE
     1 4ZO         1 TEMP              0 ****  ****    0 ROOT
