@<TRIPOS>MOLECULE
molecule
   42    43     1     0     0
SMALL
bcc


@<TRIPOS>ATOM
      1 C1           0.0000     0.0000     0.0000 c3         1 4ZP       0.180300
      2 C2           2.5030     0.0000     0.0000 ca         1 4ZP      -0.109000
      3 C3           3.7200     0.0000     0.6560 ca         1 4ZP      -0.128000
      4 C4           3.7640    -0.0080     2.0360 ca         1 4ZP      -0.112000
      5 C5           2.5780    -0.0140     2.7670 cp         1 4ZP      -0.036000
      6 C6           1.3540    -0.0130     2.1020 ca         1 4ZP      -0.103000
      7 C7           1.3220    -0.0010     0.7220 ca         1 4ZP      -0.116300
      8 C8           2.6180    -0.0210     4.2510 cp         1 4ZP      -0.161300
      9 C9           1.4390    -0.0350     4.9920 ca         1 4ZP       0.428200
     10 C11          2.6120    -0.0380     6.9740 ca         1 4ZP       0.419200
     11 N10          1.4730    -0.0420     6.3080 nb         1 4ZP      -0.685000
     12 C12          3.8250    -0.0310     6.3130 ca         1 4ZP      -0.251300
     13 C13          3.8410    -0.0230     4.9280 ca         1 4ZP      -0.087000
     14 N14         -0.4360     1.3810    -0.2210 ns         1 4ZP      -0.600900
     15 C15         -1.6000     1.6280    -0.8530 c          1 4ZP       0.785100
     16 N16         -2.0000     2.8990    -1.0560 ns         1 4ZP      -0.604900
     17 C17         -3.2660     3.1670    -1.7440 c3         1 4ZP       0.089000
     18 C18         -3.4780     4.6550    -1.8430 c          1 4ZP       0.624100
     19 O19         -2.2900     0.7040    -1.2400 o          1 4ZP      -0.663100
     20 O20         -2.6570     5.4150    -1.3860 o          1 4ZP      -0.559000
     21 O21         -4.5800     5.1390    -2.4380 os         1 4ZP      -0.424900
     22 C22         -4.7190     6.5830    -2.4970 c3         1 4ZP       0.147400
     23 C23         -6.0260     6.9410    -3.2060 c3         1 4ZP      -0.096100
     24 H1           0.1090    -0.5010    -0.9540 h1         1 4ZP       0.060200
     25 H2          -0.7380    -0.5200     0.5990 h1         1 4ZP       0.060200
     26 H4           4.6410     0.0030     0.0860 ha         1 4ZP       0.135000
     27 H5           4.7180    -0.0080     2.5490 ha         1 4ZP       0.134000
     28 H6           0.4300    -0.0180     2.6660 ha         1 4ZP       0.140000
     29 H7           0.4840    -0.0380     4.4800 h4         1 4ZP       0.027100
     30 H8           2.5950    -0.0440     8.0570 h4         1 4ZP       0.024100
     31 H9           4.7540    -0.0300     6.8710 ha         1 4ZP       0.140000
     32 H10          4.7780    -0.0180     4.3830 ha         1 4ZP       0.140000
     33 H11          0.1320     2.1410     0.0960 hn         1 4ZP       0.314500
     34 H12         -1.4340     3.6590    -0.7360 hn         1 4ZP       0.332500
     35 H13         -3.2340     2.7410    -2.7390 h1         1 4ZP       0.084200
     36 H14         -4.0820     2.7220    -1.1870 h1         1 4ZP       0.084200
     37 H15         -3.8840     7.0040    -3.0440 h1         1 4ZP       0.050700
     38 H16         -4.7310     6.9860    -1.4910 h1         1 4ZP       0.050700
     39 H17         -6.1300     8.0190    -3.2510 hc         1 4ZP       0.049700
     40 H18         -6.8610     6.5210    -2.6590 hc         1 4ZP       0.049700
     41 H19         -6.0140     6.5380    -4.2120 hc         1 4ZP       0.049700
     42 H3           2.4730     0.0060    -1.0830 ha         1 4ZP       0.138000
@<TRIPOS>BOND
     1    19    15 2   
     2     1    14 1   
     3     1     7 1   
     4    15    14 1   
     5    15    16 1   
     6     7     6 ar  
     7     7     2 ar  
     8     9    11 ar  
     9     9     8 ar  
    10     6     5 ar  
    11    11    10 ar  
    12    16    17 1   
    13    17    18 1   
    14     2     3 ar  
    15    21    18 1   
    16    21    22 1   
    17     5     8 1   
    18     5     4 ar  
    19    18    20 2   
    20     8    13 ar  
    21    23    22 1   
    22    10    12 ar  
    23     3     4 ar  
    24    13    12 ar  
    25     1    24 1   
    26     1    25 1   
    27     2    42 1   
    28     3    26 1   
    29     4    27 1   
    30     6    28 1   
    31     9    29 1   
    32    10    30 1   
    33    12    31 1   
    34    13    32 1   
    35    14    33 1   
    36    16    34 1   
    37    17    35 1   
    38    17    36 1   
    39    22    37 1   
    40    22    38 1   
    41    23    39 1   
    42    23    40 1   
    43    23    41 1   
@<TRIPOS>SUBSTRUCTURE
     1 4ZP         1 TEMP              0 ****  ****    0 ROOT
