@<TRIPOS>MOLECULE
4ZP
   42    43     1     0     0
SMALL
bcc


@<TRIPOS>ATOM
      1 C1           0.0000     0.0000     0.0000 c3         1 4ZP       0.128300
      2 C2           2.5030     0.0000     0.0000 ca         1 4ZP      -0.082000
      3 C3           3.7200     0.0000     0.6560 ca         1 4ZP      -0.098000
      4 C4           3.7640    -0.0080     2.0360 ca         1 4ZP      -0.092000
      5 C5           2.5780    -0.0140     2.7670 cp         1 4ZP      -0.029000
      6 C6           1.3540    -0.0130     2.1020 ca         1 4ZP      -0.081000
      7 C7           1.3220    -0.0010     0.7220 ca         1 4ZP      -0.121300
      8 C8           2.6180    -0.0210     4.2510 cp         1 4ZP      -0.151300
      9 C9           1.4390    -0.0350     4.9920 ca         1 4ZP       0.404200
     10 C11          2.6120    -0.0380     6.9740 ca         1 4ZP       0.403200
     11 N10          1.4730    -0.0420     6.3080 nb         1 4ZP      -0.577000
     12 C12          3.8250    -0.0310     6.3130 ca         1 4ZP      -0.217300
     13 C13          3.8410    -0.0230     4.9280 ca         1 4ZP      -0.069000
     14 N14         -0.4360     1.3810    -0.2210 ns         1 4ZP      -0.215900
     15 C15         -1.6000     1.6280    -0.8530 c          1 4ZP       0.580100
     16 N16         -2.0000     2.8990    -1.0560 ns         1 4ZP      -0.223900
     17 C17         -3.2660     3.1670    -1.7440 c3         1 4ZP       0.025000
     18 C18         -3.4780     4.6550    -1.8430 c          1 4ZP       0.691100
     19 O19         -2.2900     0.7040    -1.2400 o          1 4ZP      -0.711100
     20 O20         -2.6570     5.4150    -1.3860 o          1 4ZP      -0.598000
     21 O21         -4.5800     5.1390    -2.4380 os         1 4ZP      -0.407900
     22 C22         -4.7190     6.5830    -2.4970 c3         1 4ZP       0.228400
     23 C23         -6.0260     6.9410    -3.2060 c3         1 4ZP      -0.003100
     24 H1           0.1090    -0.5010    -0.9540 h1         1 4ZP       0.028700
     25 H2          -0.7380    -0.5200     0.5990 h1         1 4ZP       0.028700
     26 H4           4.6410     0.0030     0.0860 ha         1 4ZP       0.106000
     27 H5           4.7180    -0.0080     2.5490 ha         1 4ZP       0.111000
     28 H6           0.4300    -0.0180     2.6660 ha         1 4ZP       0.119000
     29 H7           0.4840    -0.0380     4.4800 h4         1 4ZP      -0.012900
     30 H8           2.5950    -0.0440     8.0570 h4         1 4ZP      -0.019900
     31 H9           4.7540    -0.0300     6.8710 ha         1 4ZP       0.113000
     32 H10          4.7780    -0.0180     4.3830 ha         1 4ZP       0.116000
     33 H11          0.1320     2.1410     0.0960 hn         1 4ZP       0.172500
     34 H12         -1.4340     3.6590    -0.7360 hn         1 4ZP       0.195500
     35 H13         -3.2340     2.7410    -2.7390 h1         1 4ZP       0.047200
     36 H14         -4.0820     2.7220    -1.1870 h1         1 4ZP       0.047200
     37 H15         -3.8840     7.0040    -3.0440 h1         1 4ZP       0.009700
     38 H16         -4.7310     6.9860    -1.4910 h1         1 4ZP       0.009700
     39 H17         -6.1300     8.0190    -3.2510 hc         1 4ZP       0.012033
     40 H18         -6.8610     6.5210    -2.6590 hc         1 4ZP       0.012033
     41 H19         -6.0140     6.5380    -4.2120 hc         1 4ZP       0.012033
     42 H3           2.4730     0.0060    -1.0830 ha         1 4ZP       0.109000
@<TRIPOS>BOND
     1     1     7 1   
     2     1    14 1   
     3     1    24 1   
     4     1    25 1   
     5     2     3 ar  
     6     2     7 ar  
     7     2    42 1   
     8     3     4 ar  
     9     3    26 1   
    10     4     5 ar  
    11     4    27 1   
    12     5     6 ar  
    13     5     8 1   
    14     6     7 ar  
    15     6    28 1   
    16     8     9 ar  
    17     8    13 ar  
    18     9    11 ar  
    19     9    29 1   
    20    10    11 ar  
    21    10    12 ar  
    22    10    30 1   
    23    12    13 ar  
    24    12    31 1   
    25    13    32 1   
    26    14    15 1   
    27    14    33 1   
    28    15    16 1   
    29    15    19 2   
    30    16    17 1   
    31    16    34 1   
    32    17    18 1   
    33    17    35 1   
    34    17    36 1   
    35    18    20 2   
    36    18    21 1   
    37    21    22 1   
    38    22    23 1   
    39    22    37 1   
    40    22    38 1   
    41    23    39 1   
    42    23    40 1   
    43    23    41 1   
@<TRIPOS>SUBSTRUCTURE
     1 4ZP         1 TEMP              0 ****  ****    0 ROOT
