@<TRIPOS>MOLECULE
molecule
   59    62     1     0     0
SMALL
bcc


@<TRIPOS>ATOM
      1 C14          0.0000     0.0000     0.0000 c3         1 4ZQ       0.601900
      2 C5           2.4360     3.3010    -1.2840 ca         1 4ZQ      -0.065900
      3 C6           2.3590     4.6880    -1.1670 ca         1 4ZQ       0.516200
      4 C8           1.0200     4.5120     0.7140 ca         1 4ZQ       0.685200
      5 C9           1.0500     3.1270     0.6760 ca         1 4ZQ      -0.317300
      6 C10          1.7660     2.5010    -0.3350 ca         1 4ZQ      -0.036200
      7 C12          1.5300     0.0000     0.0000 c3         1 4ZQ       0.013000
      8 C13          2.0390     0.0000     1.4420 c3         1 4ZQ      -0.112100
      9 C3           2.7990     1.2230    -1.8060 cc         1 4ZQ       0.410800
     10 C1           2.5240    -0.1830    -3.8300 c3         1 4ZQ      -0.115100
     11 C2           3.3100     0.0040    -2.5310 c3         1 4ZQ       0.152800
     12 N4           3.0480     2.4530    -2.1500 nd         1 4ZQ      -0.536100
     13 N7           1.6670     5.2370    -0.1900 nb         1 4ZQ      -0.679000
     14 N11          2.0180     1.1970    -0.6900 na         1 4ZQ      -0.161300
     15 F15         -0.4670     0.0000    -1.3190 f          1 4ZQ      -0.216633
     16 F16         -0.4660    -1.1430     0.6590 f          1 4ZQ      -0.216633
     17 F17         -0.4680     1.1420     0.6600 f          1 4ZQ      -0.216633
     18 C19          0.3560     6.5360     1.8380 ca         1 4ZQ       0.733200
     19 C20         -0.2660     7.1820     2.9080 ca         1 4ZQ      -0.469600
     20 C21         -0.1880     8.5600     2.9820 ca         1 4ZQ       0.505200
     21 N22          0.4690     9.2230     2.0420 nb         1 4ZQ      -0.817000
     22 C23          1.0500     8.5840     1.0380 ca         1 4ZQ       0.895900
     23 N24          1.0040     7.2640     0.9340 nb         1 4ZQ      -0.744000
     24 N25          1.7270     9.3130     0.0760 nh         1 4ZQ      -0.667300
     25 C26          1.6710    10.7510     0.3680 c3         1 4ZQ       0.175800
     26 C27          2.3000    11.5330    -0.7870 c3         1 4ZQ      -0.083400
     27 C28          3.7540    11.0870    -0.9660 c3         1 4ZQ       0.112100
     28 C29          3.7880     9.5780    -1.2210 c3         1 4ZQ       0.155600
     29 C30          3.1150     8.8520    -0.0540 c3         1 4ZQ       0.145800
     30 F31          3.1060     9.2880    -2.4070 f          1 4ZQ      -0.220300
     31 O32          4.3300    11.7750    -2.0780 os         1 4ZQ      -0.408600
     32 C33          5.7380    11.9900    -1.9620 c3         1 4ZQ       0.125700
     33 O34          4.6960     0.1770    -2.8340 oh         1 4ZQ      -0.575800
     34 H1           2.8720     5.3180    -1.8840 h4         1 4ZQ       0.046100
     35 H2           0.5190     2.5430     1.4180 ha         1 4ZQ       0.149000
     36 H3           1.8910    -0.8840    -0.5110 h1         1 4ZQ       0.100700
     37 H4           2.4050    -0.9880     1.6960 hc         1 4ZQ       0.064033
     38 H5           2.8440     0.7190     1.5410 hc         1 4ZQ       0.064033
     39 H6           1.2300     0.2690     2.1110 hc         1 4ZQ       0.064033
     40 H7           3.1900    -0.0640    -4.6760 hc         1 4ZQ       0.055367
     41 H8           1.7340     0.5570    -3.8840 hc         1 4ZQ       0.055367
     42 H9           2.0900    -1.1760    -3.8490 hc         1 4ZQ       0.055367
     43 H10          3.1840    -0.8690    -1.9030 h1         1 4ZQ       0.025700
     44 H11         -0.2570     4.6220     2.3570 hn         1 4ZQ       0.466800
     45 H12         -0.7970     6.6160     3.6640 ha         1 4ZQ       0.139000
     46 H13         -0.6600     9.0920     3.7990 h4         1 4ZQ       0.027100
     47 H14          0.6370    11.0540     0.4860 h1         1 4ZQ       0.057200
     48 H15          2.2180    10.9540     1.2800 h1         1 4ZQ       0.057200
     49 H16          2.2740    12.5930    -0.5610 hc         1 4ZQ       0.070700
     50 H17          1.7480    11.3380    -1.6980 hc         1 4ZQ       0.070700
     51 H18          4.3130    11.3120    -0.0660 h1         1 4ZQ       0.040700
     52 H19          4.8170     9.2500    -1.3020 h1         1 4ZQ       0.053700
     53 H20          3.1240     7.7850    -0.2400 h1         1 4ZQ       0.066700
     54 H21          3.6530     9.0680     0.8620 h1         1 4ZQ       0.066700
     55 H22          5.9530    12.4650    -1.0120 h1         1 4ZQ       0.030367
     56 H23          6.0730    12.6300    -2.7690 h1         1 4ZQ       0.030367
     57 H24          6.2550    11.0400    -2.0150 h1         1 4ZQ       0.030367
     58 H25          5.1390    -0.6520    -2.7620 ho         1 4ZQ       0.404000
     59 N18          0.3050     5.1550     1.7240 nu         1 4ZQ      -0.860600
@<TRIPOS>BOND
     1    30    28 1   
     2    28    29 1   
     3    28    27 1   
     4    31    32 1   
     5    31    27 1   
     6    29    24 1   
     7    27    26 1   
     8    21    20 ar  
     9    21    22 ar  
    10    20    19 ar  
    11    24    22 1   
    12    24    25 1   
    13    26    25 1   
    14    22    23 ar  
    15    19    18 ar  
    16    23    18 ar  
    17    18    59 1   
    18    59     4 1   
    19    17     1 1   
    20    16     1 1   
    21     4     5 ar  
    22     4    13 ar  
    23     5     6 ar  
    24     1    15 1   
    25     1     7 1   
    26     8     7 1   
    27     7    14 1   
    28    13     3 ar  
    29     6    14 1   
    30     6     2 ar  
    31    14     9 1   
    32     3     2 ar  
    33     2    12 1   
    34     9    12 2   
    35     9    11 1   
    36    11    33 1   
    37    11    10 1   
    38     3    34 1   
    39     5    35 1   
    40     7    36 1   
    41     8    37 1   
    42     8    38 1   
    43     8    39 1   
    44    10    40 1   
    45    10    41 1   
    46    10    42 1   
    47    11    43 1   
    48    59    44 1   
    49    19    45 1   
    50    20    46 1   
    51    25    47 1   
    52    25    48 1   
    53    26    49 1   
    54    26    50 1   
    55    27    51 1   
    56    28    52 1   
    57    29    53 1   
    58    29    54 1   
    59    32    55 1   
    60    32    56 1   
    61    32    57 1   
    62    33    58 1   
@<TRIPOS>SUBSTRUCTURE
     1 4ZQ         1 TEMP              0 ****  ****    0 ROOT
