@<TRIPOS>MOLECULE
molecule
   59    62     1     0     0
SMALL
bcc


@<TRIPOS>ATOM
      1 C14          0.0000     0.0000     0.0000 c3         1 4ZR       0.602900
      2 C5           2.4370     3.2990    -1.2870 ca         1 4ZR      -0.065900
      3 C6           2.3620     4.6850    -1.1720 ca         1 4ZR       0.516200
      4 C8           1.0230     4.5130     0.7110 ca         1 4ZR       0.686200
      5 C9           1.0510     3.1270     0.6730 ca         1 4ZR      -0.317300
      6 C10          1.7670     2.5000    -0.3380 ca         1 4ZR      -0.035200
      7 C12          1.5290     0.0000     0.0000 c3         1 4ZR       0.012000
      8 C13          2.0400     0.0000     1.4430 c3         1 4ZR      -0.112100
      9 C3           2.8000     1.2200    -1.8080 cc         1 4ZR       0.412800
     10 C1           2.5240    -0.1880    -3.8300 c3         1 4ZR      -0.115100
     11 C2           3.3100     0.0010    -2.5320 c3         1 4ZR       0.152800
     12 N4           3.0490     2.4490    -2.1520 nd         1 4ZR      -0.538100
     13 N7           1.6700     5.2350    -0.1950 nb         1 4ZR      -0.681000
     14 N11          2.0180     1.1950    -0.6920 na         1 4ZR      -0.162300
     15 F15         -0.4660     1.1430     0.6590 f          1 4ZR      -0.216633
     16 F16         -0.4670    -0.0010    -1.3190 f          1 4ZR      -0.216633
     17 F17         -0.4670    -1.1420     0.6600 f          1 4ZR      -0.216633
     18 C19          0.3610     6.5380     1.8320 ca         1 4ZR       0.734200
     19 C20         -0.2610     7.1850     2.9010 ca         1 4ZR      -0.469600
     20 C21         -0.1830     8.5620     2.9740 ca         1 4ZR       0.505200
     21 N22          0.4750     9.2250     2.0340 nb         1 4ZR      -0.819000
     22 C23          1.0570     8.5840     1.0300 ca         1 4ZR       0.897900
     23 N24          1.0090     7.2650     0.9270 nb         1 4ZR      -0.745000
     24 N25          1.7330     9.3120     0.0670 nh         1 4ZR      -0.666300
     25 C26          3.1210     8.8500    -0.0620 c3         1 4ZR       0.173800
     26 C27          3.7950     9.5740    -1.2300 c3         1 4ZR      -0.080400
     27 C28          3.7610    11.0840    -0.9770 c3         1 4ZR       0.112100
     28 C29          2.3080    11.5310    -0.7970 c3         1 4ZR       0.151600
     29 C30          1.6770    10.7500     0.3580 c3         1 4ZR       0.149800
     30 F31          1.5940    11.2810    -1.9740 f          1 4ZR      -0.223300
     31 O32          4.3370    11.7680    -2.0900 os         1 4ZR      -0.408600
     32 C33          4.9710    13.0030    -1.7490 c3         1 4ZR       0.125700
     33 O34          4.6960     0.1710    -2.8350 oh         1 4ZR      -0.575800
     34 H1           2.8750     5.3140    -1.8890 h4         1 4ZR       0.043100
     35 H2           0.5200     2.5440     1.4160 ha         1 4ZR       0.149000
     36 H3           1.8900    -0.8850    -0.5100 h1         1 4ZR       0.099700
     37 H4           2.9660     0.5600     1.4980 hc         1 4ZR       0.064033
     38 H5           2.2150    -1.0200     1.7640 hc         1 4ZR       0.064033
     39 H6           1.3010     0.4600     2.0870 hc         1 4ZR       0.064033
     40 H7           1.7850     0.5980    -3.9230 hc         1 4ZR       0.055033
     41 H8           2.0260    -1.1510    -3.8140 hc         1 4ZR       0.055033
     42 H9           3.2030    -0.1470    -4.6730 hc         1 4ZR       0.055033
     43 H10          3.1830    -0.8720    -1.9020 h1         1 4ZR       0.025700
     44 H11         -0.2470     4.6230     2.3580 hn         1 4ZR       0.466800
     45 H12         -0.7930     6.6200     3.6570 ha         1 4ZR       0.139000
     46 H13         -0.6550     9.0950     3.7910 h4         1 4ZR       0.027100
     47 H14          3.6590     9.0660     0.8530 h1         1 4ZR       0.058700
     48 H15          3.1290     7.7830    -0.2480 h1         1 4ZR       0.058700
     49 H16          4.8240     9.2460    -1.3120 hc         1 4ZR       0.072200
     50 H17          3.2650     9.3510    -2.1470 hc         1 4ZR       0.072200
     51 H18          4.3210    11.3110    -0.0770 h1         1 4ZR       0.040700
     52 H19          2.2830    12.5900    -0.5720 h1         1 4ZR       0.054700
     53 H20          2.2240    10.9540     1.2710 h1         1 4ZR       0.065700
     54 H21          0.6440    11.0530     0.4750 h1         1 4ZR       0.065700
     55 H22          5.6900    12.8330    -0.9560 h1         1 4ZR       0.030700
     56 H23          4.2250    13.7120    -1.4140 h1         1 4ZR       0.030700
     57 H24          5.4810    13.3990    -2.6190 h1         1 4ZR       0.030700
     58 H25          5.1390    -0.6570    -2.7570 ho         1 4ZR       0.404000
     59 N18          0.3090     5.1570     1.7190 nu         1 4ZR      -0.859600
@<TRIPOS>BOND
     1    26    25 1   
     2    26    27 1   
     3    31    32 1   
     4    31    27 1   
     5    25    24 1   
     6    27    28 1   
     7    21    20 ar  
     8    21    22 ar  
     9    30    28 1   
    10    24    22 1   
    11    24    29 1   
    12    20    19 ar  
    13    28    29 1   
    14    22    23 ar  
    15    19    18 ar  
    16    23    18 ar  
    17    18    59 1   
    18    59     4 1   
    19    15     1 1   
    20    17     1 1   
    21     4     5 ar  
    22     4    13 ar  
    23     5     6 ar  
    24     1    16 1   
    25     1     7 1   
    26     8     7 1   
    27     7    14 1   
    28    13     3 ar  
    29     6    14 1   
    30     6     2 ar  
    31    14     9 1   
    32     3     2 ar  
    33     2    12 1   
    34     9    12 2   
    35     9    11 1   
    36    11    33 1   
    37    11    10 1   
    38     3    34 1   
    39     5    35 1   
    40     7    36 1   
    41     8    37 1   
    42     8    38 1   
    43     8    39 1   
    44    10    40 1   
    45    10    41 1   
    46    10    42 1   
    47    11    43 1   
    48    59    44 1   
    49    19    45 1   
    50    20    46 1   
    51    25    47 1   
    52    25    48 1   
    53    26    49 1   
    54    26    50 1   
    55    27    51 1   
    56    28    52 1   
    57    29    53 1   
    58    29    54 1   
    59    32    55 1   
    60    32    56 1   
    61    32    57 1   
    62    33    58 1   
@<TRIPOS>SUBSTRUCTURE
     1 4ZR         1 TEMP              0 ****  ****    0 ROOT
