@<TRIPOS>MOLECULE
4ZS
   67    71     1     0     0
SMALL
bcc


@<TRIPOS>ATOM
      1 C4           0.0000     0.0000     0.0000 ca         1 4ZS       0.594100
      2 C5           1.4030     0.0000     0.0000 ca         1 4ZS      -0.463600
      3 C6           2.0610     0.0000     1.2140 ca         1 4ZS       0.507200
      4 N1           1.3530     0.0020     2.3350 nb         1 4ZS      -0.716000
      5 N3          -0.6450     0.0070     1.1700 nb         1 4ZS      -0.692000
      6 CAO         -0.9460     1.2220     6.8640 cx         1 4ZS      -0.071900
      7 CAP         -0.3800    -0.1120     7.3540 cx         1 4ZS      -0.071900
      8 CBH         -0.9420     0.0050     5.9350 cx         1 4ZS      -0.141700
      9 CAQ          0.0580     0.0040     4.7760 c3         1 4ZS       0.208800
     10 C2           0.0280     0.0020     2.3090 ca         1 4ZS       0.729900
     11 CBF         -0.7480    -0.0000    -1.2660 cc         1 4ZS      -0.509900
     12 NBJ         -0.3040     0.4610    -2.4860 na         1 4ZS       0.671700
     13 CAN          0.8750     1.0190    -2.8810 cc         1 4ZS      -0.321300
     14 CAX          1.0640     1.3940    -4.1650 cd         1 4ZS      -0.034300
     15 CAA          2.3740     2.0100    -4.5830 c3         1 4ZS       0.058200
     16 CBA          0.0440     1.2110    -5.1110 cd         1 4ZS      -0.112300
     17 CAR          0.2550     1.6290    -6.5440 c3         1 4ZS       0.208100
     18 NBI          0.9640     0.5630    -7.2640 n3         1 4ZS      -0.544600
     19 CAC          0.0610    -0.5530    -7.5760 c3         1 4ZS       0.180600
     20 CAB          1.5970     1.0840    -8.4830 c3         1 4ZS       0.180600
     21 CAM         -1.1380     0.6540    -4.7290 cc         1 4ZS      -0.020000
     22 CBG         -1.3190     0.2690    -3.3850 cc         1 4ZS      -0.246300
     23 NAT         -2.3490    -0.2850    -2.7560 nd         1 4ZS      -0.235600
     24 CBE         -2.0410    -0.4710    -1.4690 cd         1 4ZS       0.178400
     25 CAZ         -2.9230    -1.0690    -0.4390 ca         1 4ZS       0.012200
     26 CAL         -4.2990    -0.8470    -0.4830 ca         1 4ZS      -0.131000
     27 CAK         -2.3790    -1.8590     0.5730 ca         1 4ZS      -0.067000
     28 CAJ         -3.2010    -2.4160     1.5320 ca         1 4ZS      -0.126000
     29 CAY         -4.5660    -2.1930     1.4920 ca         1 4ZS       0.059900
     30 FAG         -5.3660    -2.7400     2.4340 f          1 4ZS      -0.130900
     31 CBC         -5.1180    -1.4090     0.4830 ca         1 4ZS       0.027600
     32 NAV         -6.4980    -1.1840     0.4460 nu         1 4ZS      -0.399500
     33 SBK         -7.2760    -1.0470    -1.0100 s6         1 4ZS       0.951900
     34 OAE         -8.6480    -0.9270    -0.6630 o          1 4ZS      -0.582300
     35 OAF         -6.5930     0.0080    -1.6730 o          1 4ZS      -0.582300
     36 CAD         -6.9640    -2.6290    -1.8400 c3         1 4ZS       0.006700
     37 H1           1.9570    -0.0040    -0.9310 ha         1 4ZS       0.130000
     38 H2           3.1430     0.0000     1.2500 h4         1 4ZS      -0.020900
     39 H4          -0.2130     1.9850     6.6370 hc         1 4ZS       0.046700
     40 H5          -1.0000    -0.6520     8.0590 hc         1 4ZS       0.046700
     41 H6           0.6990    -0.1640     7.4260 hc         1 4ZS       0.046700
     42 H7          -1.9110    -0.4590     5.7910 hc         1 4ZS       0.063700
     43 H8           0.6800     0.8880     4.8360 h1         1 4ZS       0.026200
     44 H9           0.6800    -0.8810     4.8370 h1         1 4ZS       0.026200
     45 H11          1.6670     1.1680    -2.1570 h4         1 4ZS       0.159000
     46 H12          2.1870     2.9510    -5.0850 hc         1 4ZS       0.017033
     47 H13          2.9880     2.1830    -3.7070 hc         1 4ZS       0.017033
     48 H14          2.8900     1.3370    -5.2580 hc         1 4ZS       0.017033
     49 H15          0.8430     2.5380    -6.5720 h1         1 4ZS       0.019200
     50 H16         -0.7050     1.8050    -7.0140 h1         1 4ZS       0.019200
     51 H18         -0.9090    -0.1640    -7.8600 h1         1 4ZS       0.003200
     52 H19          0.4720    -1.1310    -8.3950 h1         1 4ZS       0.003200
     53 H20         -0.0440    -1.1870    -6.7040 h1         1 4ZS       0.003200
     54 H21          2.2250     1.9300    -8.2310 h1         1 4ZS       0.003200
     55 H22          2.2030     0.3080    -8.9360 h1         1 4ZS       0.003200
     56 H23          0.8320     1.3990    -9.1820 h1         1 4ZS       0.003200
     57 H24         -1.9330     0.5080    -5.4500 ha         1 4ZS       0.128000
     58 H25         -4.7250    -0.2360    -1.2700 ha         1 4ZS       0.189000
     59 H26         -1.3100    -2.0360     0.6070 ha         1 4ZS       0.119000
     60 H27         -2.7770    -3.0300     2.3180 ha         1 4ZS       0.116000
     61 H28         -7.0080    -1.0670     1.2990 hn         1 4ZS       0.354800
     62 H29         -6.4100    -2.4540    -2.7540 h1         1 4ZS       0.069367
     63 H30         -7.9080    -3.1050    -2.0750 h1         1 4ZS       0.069367
     64 H31         -6.3880    -3.2730    -1.1860 h1         1 4ZS       0.069367
     65 NAU         -0.6690     0.0040     3.5040 nu         1 4ZS      -0.481900
     66 H3          -1.9120     1.4970     7.2700 hc         1 4ZS       0.046700
     67 H10         -1.6690     0.0440     3.5000 hn         1 4ZS       0.306800
@<TRIPOS>BOND
     1     1     2 ar  
     2     1     5 ar  
     3     1    11 1   
     4     2     3 ar  
     5     2    37 1   
     6     3     4 ar  
     7     3    38 1   
     8     4    10 ar  
     9     5    10 ar  
    10     6     7 1   
    11     6     8 1   
    12     6    39 1   
    13     6    66 1   
    14     7     8 1   
    15     7    40 1   
    16     7    41 1   
    17     8     9 1   
    18     8    42 1   
    19     9    43 1   
    20     9    44 1   
    21     9    65 1   
    22    10    65 1   
    23    11    12 1   
    24    11    24 2   
    25    12    13 1   
    26    12    22 1   
    27    13    14 2   
    28    13    45 1   
    29    14    15 1   
    30    14    16 1   
    31    15    46 1   
    32    15    47 1   
    33    15    48 1   
    34    16    17 1   
    35    16    21 2   
    36    17    18 1   
    37    17    49 1   
    38    17    50 1   
    39    18    19 1   
    40    18    20 1   
    41    19    51 1   
    42    19    52 1   
    43    19    53 1   
    44    20    54 1   
    45    20    55 1   
    46    20    56 1   
    47    21    22 1   
    48    21    57 1   
    49    22    23 2   
    50    23    24 1   
    51    24    25 1   
    52    25    26 ar  
    53    25    27 ar  
    54    26    31 ar  
    55    26    58 1   
    56    27    28 ar  
    57    27    59 1   
    58    28    29 ar  
    59    28    60 1   
    60    29    30 1   
    61    29    31 ar  
    62    31    32 1   
    63    32    33 1   
    64    32    61 1   
    65    33    34 2   
    66    33    35 2   
    67    33    36 1   
    68    36    62 1   
    69    36    63 1   
    70    36    64 1   
    71    65    67 1   
@<TRIPOS>SUBSTRUCTURE
     1 4ZS         1 TEMP              0 ****  ****    0 ROOT
