@<TRIPOS>MOLECULE
4ZT
   45    45     1     0     0
SMALL
bcc


@<TRIPOS>ATOM
      1 N1           0.0000     0.0000     0.0000 ns         1 4ZT      -0.212900
      2 C1           1.4650     0.0000     0.0000 c3         1 4ZT       0.128300
      3 C2          -0.6730     0.0000     1.1680 c          1 4ZT       0.586100
      4 C3           1.9670     0.0010    -1.4210 ca         1 4ZT      -0.133300
      5 C4           2.1900    -1.1980    -2.0750 ca         1 4ZT      -0.079500
      6 C5           2.6510    -1.2000    -3.3770 ca         1 4ZT      -0.116500
      7 C6           2.8880     0.0020    -4.0300 ca         1 4ZT       0.039600
      8 C7           2.6610     1.2030    -3.3710 ca         1 4ZT      -0.116500
      9 C8           2.1960     1.2000    -2.0710 ca         1 4ZT      -0.079500
     10 N9           3.3520     0.0030    -5.3480 nv         1 4ZT      -0.563200
     11 N10         -2.0210    -0.0000     1.1690 ns         1 4ZT      -0.200900
     12 O13         -0.0640    -0.0010     2.2200 o          1 4ZT      -0.706100
     13 C14         -2.7520    -0.0010     2.4380 c3         1 4ZT      -0.011300
     14 C15         -2.8960    -1.4160     2.9340 c          1 4ZT       0.684100
     15 O16         -3.5370    -1.6610     4.0880 os         1 4ZT      -0.412900
     16 O17         -2.4350    -2.3310     2.2930 o          1 4ZT      -0.579000
     17 C18         -3.6380    -3.0490     4.5050 c3         1 4ZT       0.226400
     18 C19         -4.3950    -3.1290     5.8320 c3         1 4ZT      -0.003100
     19 C20         -4.1400     0.6100     2.2280 c3         1 4ZT      -0.016400
     20 C21         -3.9960     2.0840     1.8440 c3         1 4ZT       0.075700
     21 S22         -5.6400     2.8060     1.5940 ss         1 4ZT      -0.404200
     22 C23         -5.2680     4.5270     1.1540 c3         1 4ZT       0.120000
     23 H1          -0.5000    -0.0260    -0.8660 hn         1 4ZT       0.170500
     24 H2           1.8260     0.8840     0.5110 h1         1 4ZT       0.028700
     25 H3           1.8260    -0.8850     0.5100 h1         1 4ZT       0.028700
     26 H4           2.0050    -2.1350    -1.5640 ha         1 4ZT       0.108000
     27 H5           2.8260    -2.1390    -3.8880 ha         1 4ZT       0.109500
     28 H6           2.8430     2.1430    -3.8790 ha         1 4ZT       0.109500
     29 H7           2.0200     2.1360    -1.5570 ha         1 4ZT       0.108000
     30 H8           4.3360     0.0000    -5.5320 hn         1 4ZT       0.274300
     31 H9           2.7010     0.0070    -6.1090 hn         1 4ZT       0.274300
     32 H10         -2.5220    -0.0440     0.3030 hn         1 4ZT       0.174500
     33 H11         -2.2070     0.5850     3.1690 h1         1 4ZT       0.079700
     34 H12         -2.6440    -3.4610     4.6300 h1         1 4ZT       0.009700
     35 H13         -4.1700    -3.6140     3.7500 h1         1 4ZT       0.009700
     36 H14         -3.8790    -2.5380     6.5790 hc         1 4ZT       0.010700
     37 H15         -4.4430    -4.1610     6.1580 hc         1 4ZT       0.010700
     38 H16         -5.3990    -2.7460     5.6990 hc         1 4ZT       0.010700
     39 H17         -4.7120     0.5290     3.1440 hc         1 4ZT       0.042700
     40 H18         -4.6510     0.0780     1.4340 hc         1 4ZT       0.042700
     41 H19         -3.4840     2.6150     2.6380 h1         1 4ZT       0.037700
     42 H20         -3.4230     2.1640     0.9280 h1         1 4ZT       0.037700
     43 H21         -4.7230     4.9970     1.9630 h1         1 4ZT       0.031700
     44 H22         -4.6660     4.5470     0.2530 h1         1 4ZT       0.031700
     45 H23         -6.1930     5.0640     0.9820 h1         1 4ZT       0.031700
@<TRIPOS>BOND
     1     1     2 1   
     2     1     3 1   
     3     1    23 1   
     4     2     4 1   
     5     2    24 1   
     6     2    25 1   
     7     3    11 1   
     8     3    12 2   
     9     4     5 ar  
    10     4     9 ar  
    11     5     6 ar  
    12     5    26 1   
    13     6     7 ar  
    14     6    27 1   
    15     7     8 ar  
    16     7    10 1   
    17     8     9 ar  
    18     8    28 1   
    19     9    29 1   
    20    10    30 1   
    21    10    31 1   
    22    11    13 1   
    23    11    32 1   
    24    13    14 1   
    25    13    19 1   
    26    13    33 1   
    27    14    15 1   
    28    14    16 2   
    29    15    17 1   
    30    17    18 1   
    31    17    34 1   
    32    17    35 1   
    33    18    36 1   
    34    18    37 1   
    35    18    38 1   
    36    19    20 1   
    37    19    39 1   
    38    19    40 1   
    39    20    21 1   
    40    20    41 1   
    41    20    42 1   
    42    21    22 1   
    43    22    43 1   
    44    22    44 1   
    45    22    45 1   
@<TRIPOS>SUBSTRUCTURE
     1 4ZT         1 TEMP              0 ****  ****    0 ROOT
