@<TRIPOS>MOLECULE
molecule
   18    19     1     0     0
SMALL
bcc


@<TRIPOS>ATOM
      1 O01          0.0000     0.0000     0.0000 o          1 4ZU      -0.822300
      2 C02          1.2160     0.0000     0.0000 c          1 4ZU       0.892800
      3 O03          1.8900     0.0000     1.1680 o          1 4ZU      -0.822300
      4 C04          1.9510    -0.0060    -1.2720 cc         1 4ZU      -0.038300
      5 C05          1.3860    -0.0110    -2.5080 cd         1 4ZU      -0.216200
      6 C06          2.4330    -0.0160    -3.4600 ca         1 4ZU      -0.085800
      7 C07          2.4600    -0.0280    -4.8610 ca         1 4ZU      -0.093000
      8 C08          3.6550    -0.0370    -5.5180 ca         1 4ZU      -0.152000
      9 C09          4.8520    -0.0330    -4.8100 ca         1 4ZU      -0.025900
     10 Br10         6.4950    -0.0460    -5.7460 br         1 4ZU      -0.151100
     11 C11          4.8520    -0.0220    -3.4320 ca         1 4ZU      -0.107000
     12 C12          3.6440    -0.0130    -2.7400 ca         1 4ZU      -0.074200
     13 N13          3.3270    -0.0000    -1.4020 na         1 4ZU      -0.148400
     14 H2           0.3290     0.0830    -2.7250 ha         1 4ZU       0.161000
     15 H3           1.5330    -0.0300    -5.4220 ha         1 4ZU       0.123000
     16 H4           3.6720    -0.0460    -6.6010 ha         1 4ZU       0.121000
     17 H5           5.7900    -0.0190    -2.8890 ha         1 4ZU       0.126000
     18 H6           3.9840     0.0110    -0.6480 hn         1 4ZU       0.311700
@<TRIPOS>BOND
     1     8     7 ar  
     2     8     9 ar  
     3    10     9 1   
     4     7     6 ar  
     5     9    11 ar  
     6     6    12 ar  
     7     6     5 1   
     8    11    12 ar  
     9    12    13 1   
    10     5     4 2   
    11    13     4 1   
    12     4     2 1   
    13     2     1 1   
    14     2     3 1   
    15     5    14 1   
    16     7    15 1   
    17     8    16 1   
    18    11    17 1   
    19    13    18 1   
@<TRIPOS>SUBSTRUCTURE
     1 4ZU         1 TEMP              0 ****  ****    0 ROOT
