@<TRIPOS>MOLECULE
molecule
   18    19     1     0     0
SMALL
bcc


@<TRIPOS>ATOM
      1 O01          0.0000     0.0000     0.0000 o          1 4ZV      -0.842800
      2 C02          1.2150     0.0000     0.0000 c          1 4ZV       0.887200
      3 O03          1.8890     0.0000     1.1670 o          1 4ZV      -0.842800
      4 C04          1.9530    -0.0050    -1.2770 ca         1 4ZV      -0.133600
      5 C05          3.3550    -0.0060    -1.2760 ca         1 4ZV      -0.059000
      6 C06          4.0510    -0.0110    -2.4480 ca         1 4ZV      -0.194000
      7 C07          3.3740    -0.0180    -3.6670 ca         1 4ZV      -0.052200
      8 N08          3.7920    -0.0230    -4.9760 na         1 4ZV      -0.195400
      9 C09          2.7090    -0.0270    -5.8120 cc         1 4ZV      -0.143100
     10 C10          1.5760    -0.0240    -5.0940 cd         1 4ZV      -0.193200
     11 C11          1.9650    -0.0170    -3.6810 ca         1 4ZV      -0.124800
     12 C12          1.2560    -0.0170    -2.4830 ca         1 4ZV      -0.064000
     13 H2           3.8900    -0.0030    -0.3340 ha         1 4ZV       0.155000
     14 H3           5.1340    -0.0120    -2.4330 ha         1 4ZV       0.100000
     15 H4           4.7480    -0.0250    -5.2730 hn         1 4ZV       0.275700
     16 H5           2.7600    -0.0320    -6.8940 h4         1 4ZV       0.140000
     17 H6           0.5650    -0.0260    -5.4840 ha         1 4ZV       0.139000
     18 H7           0.1850    -0.1740    -2.4880 ha         1 4ZV       0.147000
@<TRIPOS>BOND
     1    10     9 2   
     2    10    11 1   
     3     9     8 1   
     4     1     2 1   
     5    11    12 ar  
     6    11     7 ar  
     7    12     4 ar  
     8     8     7 1   
     9     7     6 ar  
    10     4     2 1   
    11     4     5 ar  
    12     2     3 1   
    13     6     5 ar  
    14     5    13 1   
    15     6    14 1   
    16     8    15 1   
    17     9    16 1   
    18    10    17 1   
    19    12    18 1   
@<TRIPOS>SUBSTRUCTURE
     1 4ZV         1 TEMP              0 ****  ****    0 ROOT
