@<TRIPOS>MOLECULE
4ZW
   36    38     1     0     0
SMALL
bcc


@<TRIPOS>ATOM
      1 O01          0.0000     0.0000     0.0000 o          1 4ZW      -0.654100
      2 C02          1.2160     0.0000     0.0000 c          1 4ZW       0.602700
      3 N03          1.8900     0.0000     1.1670 ns         1 4ZW      -0.191900
      4 C05          1.1580     0.0010     2.4360 c3         1 4ZW       0.016700
      5 C07          0.8010     1.4390     2.8190 c3         1 4ZW      -0.040400
      6 C10          0.0900     1.4400     4.1740 c3         1 4ZW       0.153300
      7 N13          0.9690     0.8470     5.1900 n7         1 4ZW      -0.584200
      8 C15          1.2880    -0.5500     4.8680 c3         1 4ZW       0.153300
      9 C18          2.0340    -0.6090     3.5330 c3         1 4ZW      -0.040400
     10 C21          1.9530    -0.0080    -1.2780 ca         1 4ZW      -0.184600
     11 C22          1.2590    -0.0080    -2.4930 ca         1 4ZW       0.025000
     12 C24          1.9540    -0.0140    -3.6750 ca         1 4ZW      -0.167300
     13 C25          3.3470    -0.0210    -3.6890 ca         1 4ZW      -0.079400
     14 N26          3.8140    -0.0280    -4.9980 ns         1 4ZW      -0.007100
     15 C28          2.8160    -0.0260    -5.8980 c          1 4ZW       0.608500
     16 O29          2.9350    -0.0310    -7.1050 o          1 4ZW      -0.641500
     17 C30          1.5160    -0.0170    -5.1230 c3         1 4ZW      -0.045100
     18 C33          4.0380    -0.0210    -2.4760 ca         1 4ZW      -0.131000
     19 C35          3.3500    -0.0090    -1.2850 ca         1 4ZW      -0.052000
     20 H1           2.8900    -0.0370     1.1670 hn         1 4ZW       0.178500
     21 H2           0.2490    -0.5810     2.3350 h1         1 4ZW       0.057700
     22 H3           0.1430     1.8600     2.0680 hc         1 4ZW       0.026200
     23 H4           1.7060     2.0300     2.8870 hc         1 4ZW       0.026200
     24 H5          -0.8210     0.8570     4.1030 h1         1 4ZW       0.007700
     25 H6          -0.1480     2.4590     4.4550 h1         1 4ZW       0.007700
     26 H7           0.5220     0.8900     6.0850 hn         1 4ZW       0.253800
     27 H9           1.9140    -0.9660     5.6480 h1         1 4ZW       0.007700
     28 H10          0.3690    -1.1200     4.7920 h1         1 4ZW       0.007700
     29 H11          2.2520    -1.6410     3.2870 hc         1 4ZW       0.026200
     30 H12          2.9570    -0.0470     3.6110 hc         1 4ZW       0.026200
     31 H13          0.1780    -0.0820    -2.4990 ha         1 4ZW       0.130000
     32 H14          4.7850    -0.0340    -5.2430 hn         1 4ZW       0.176500
     33 H15          0.9480     0.8770    -5.3480 hc         1 4ZW       0.056200
     34 H16          0.9390    -0.9080    -5.3420 hc         1 4ZW       0.056200
     35 H17          5.1210    -0.0210    -2.4720 ha         1 4ZW       0.109000
     36 H18          3.8940    -0.0000    -0.3480 ha         1 4ZW       0.103000
@<TRIPOS>BOND
     1     1     2 2   
     2     2     3 1   
     3     2    10 1   
     4     3     4 1   
     5     3    20 1   
     6     4     5 1   
     7     4     9 1   
     8     4    21 1   
     9     5     6 1   
    10     5    22 1   
    11     5    23 1   
    12     6     7 1   
    13     6    24 1   
    14     6    25 1   
    15     7     8 1   
    16     7    26 1   
    17     8     9 1   
    18     8    27 1   
    19     8    28 1   
    20     9    29 1   
    21     9    30 1   
    22    10    11 ar  
    23    10    19 ar  
    24    11    12 ar  
    25    11    31 1   
    26    12    13 ar  
    27    12    17 1   
    28    13    14 1   
    29    13    18 ar  
    30    14    15 1   
    31    14    32 1   
    32    15    16 2   
    33    15    17 1   
    34    17    33 1   
    35    17    34 1   
    36    18    19 ar  
    37    18    35 1   
    38    19    36 1   
@<TRIPOS>SUBSTRUCTURE
     1 4ZW         1 TEMP              0 ****  ****    0 ROOT
