@<TRIPOS>MOLECULE
molecule
   73    78     1     0     0
SMALL
bcc


@<TRIPOS>ATOM
      1 Cl1          0.0000     0.0000     0.0000 cl         1 4ZX      -0.045400
      2 C02          1.7360     0.0000     0.0000 ca         1 4ZX       0.113400
      3 C03          2.4220     0.0000     1.1940 ca         1 4ZX      -0.169000
      4 C05          3.8180    -0.0000     1.2040 ca         1 4ZX       0.087600
      5 C06          4.5060     0.0000    -0.0060 ca         1 4ZX      -0.160300
      6 C07          5.9770    -0.0010     0.3430 c3         1 4ZX      -0.122100
      7 C10          5.9950    -0.0020     1.8560 c          1 4ZX       0.710500
      8 O11          6.9780    -0.0040     2.5650 o          1 4ZX      -0.591500
      9 N12          4.7150    -0.0010     2.2680 ns         1 4ZX      -0.459100
     10 C14          3.8330     0.0010    -1.2010 ca         1 4ZX      -0.052000
     11 C16          2.4340    -0.0040    -1.2120 ca         1 4ZX      -0.172600
     12 C17          1.7000    -0.0040    -2.4910 c          1 4ZX       0.661700
     13 O18          0.4840    -0.0080    -2.4960 o          1 4ZX      -0.597100
     14 N19          2.3780     0.0020    -3.6570 ns         1 4ZX      -0.631900
     15 C21          1.6490     0.0020    -4.9280 c3         1 4ZX       0.118700
     16 C23          2.0260    -1.2460    -5.7310 c3         1 4ZX      -0.108400
     17 C26          3.5060    -1.1520    -6.1330 c3         1 4ZX       0.250000
     18 C28          4.3140    -0.7590    -4.8740 c3         1 4ZX      -0.127400
     19 C31          4.3070     0.7840    -4.8700 c3         1 4ZX      -0.127400
     20 C34          3.4970     1.1790    -6.1260 c3         1 4ZX       0.250000
     21 C36          2.0150     1.2580    -5.7240 c3         1 4ZX      -0.108400
     22 N39          3.6450     0.0160    -7.0350 n3         1 4ZX      -0.837500
     23 S40          3.9040     0.0220    -8.6710 s6         1 4ZX       1.562800
     24 O41          4.4980     1.2760    -8.9780 o          1 4ZX      -0.643300
     25 O42          4.5090    -1.2240    -8.9850 o          1 4ZX      -0.643300
     26 N43          2.4180     0.0180    -9.4020 n3         1 4ZX      -0.828500
     27 C44          1.7420     1.2810    -9.7290 c3         1 4ZX       0.233300
     28 C47          1.3680     1.2690   -11.2150 c3         1 4ZX      -0.087900
     29 C50          0.5440     0.0170   -11.5200 c3         1 4ZX       0.166500
     30 C52          1.3790    -1.2310   -11.2230 c3         1 4ZX      -0.087900
     31 C55          1.7550    -1.2480    -9.7420 c3         1 4ZX       0.233300
     32 N58          0.1560     0.0200   -12.9370 n7         1 4ZX      -0.811200
     33 C60         -1.0630    -0.7730   -13.1510 c3         1 4ZX       0.203100
     34 C63         -1.4290    -0.7470   -14.6120 ca         1 4ZX      -0.087300
     35 C64         -0.9300    -1.7120   -15.4670 ca         1 4ZX      -0.115000
     36 C66         -1.2650    -1.6870   -16.8080 ca         1 4ZX      -0.128500
     37 C68         -2.1000    -0.6990   -17.2940 ca         1 4ZX      -0.125000
     38 C70         -2.5990     0.2660   -16.4390 ca         1 4ZX      -0.128500
     39 C72         -2.2690     0.2390   -15.0980 ca         1 4ZX      -0.115000
     40 H1           1.8760     0.0000     2.1300 ha         1 4ZX       0.153000
     41 H2           6.4560    -0.8930    -0.0420 hc         1 4ZX       0.093700
     42 H3           6.4570     0.8920    -0.0400 hc         1 4ZX       0.093700
     43 H4           4.4390    -0.0020     3.2300 hn         1 4ZX       0.343500
     44 H5           4.3840    -0.0020    -2.1340 ha         1 4ZX       0.134000
     45 H6           3.3780     0.0020    -3.6540 hn         1 4ZX       0.370500
     46 H7           0.5830    -0.0030    -4.7330 h1         1 4ZX       0.097700
     47 H8           1.8690    -2.1300    -5.1240 hc         1 4ZX       0.058200
     48 H9           1.4110    -1.3040    -6.6220 hc         1 4ZX       0.058200
     49 H10          3.8710    -2.0660    -6.5850 h1         1 4ZX       0.087700
     50 H11          3.8320    -1.1410    -3.9820 hc         1 4ZX       0.067700
     51 H12          5.3280    -1.1310    -4.9450 hc         1 4ZX       0.067700
     52 H13          3.8220     1.1570    -3.9760 hc         1 4ZX       0.067700
     53 H14          5.3180     1.1660    -4.9380 hc         1 4ZX       0.067700
     54 H15          3.8530     2.0990    -6.5730 h1         1 4ZX       0.087700
     55 H16          1.4000     1.3160    -6.6140 hc         1 4ZX       0.058200
     56 H17          1.8520     2.1370    -5.1110 hc         1 4ZX       0.058200
     57 H18          0.8440     1.3760    -9.1300 h1         1 4ZX       0.054450
     58 H19          2.4080     2.1110    -9.5290 h1         1 4ZX       0.054450
     59 H20          0.7820     2.1510   -11.4460 hc         1 4ZX       0.058950
     60 H21          2.2710     1.2620   -11.8140 hc         1 4ZX       0.058950
     61 H22         -0.3430     0.0110   -10.8990 h1         1 4ZX       0.023700
     62 H23          2.2810    -1.2120   -11.8230 hc         1 4ZX       0.058950
     63 H24          0.8010    -2.1160   -11.4580 hc         1 4ZX       0.058950
     64 H25          0.8590    -1.3580    -9.1430 h1         1 4ZX       0.054450
     65 H26          2.4300    -2.0730    -9.5490 h1         1 4ZX       0.054450
     66 H27         -0.0020     0.9610   -13.2380 hn         1 4ZX       0.358800
     67 H29         -1.8730    -0.3530   -12.5680 h1         1 4ZX       0.037700
     68 H30         -0.8870    -1.7960   -12.8410 h1         1 4ZX       0.037700
     69 H31         -0.2760    -2.4870   -15.0870 ha         1 4ZX       0.130000
     70 H32         -0.8740    -2.4430   -17.4780 ha         1 4ZX       0.129500
     71 H33         -2.3600    -0.6790   -18.3450 ha         1 4ZX       0.129000
     72 H34         -3.2550     1.0400   -16.8200 ha         1 4ZX       0.129500
     73 H35         -2.6600     0.9950   -14.4280 ha         1 4ZX       0.130000
@<TRIPOS>BOND
     1    29    32 1
     2    29    28 1
     3    29    30 1
     4    27    28 1
     5    27    26 1
     6    13    12 2
     7    32    33 1
     8    38    37 ar
     9    38    39 ar
    10    37    36 ar
    11    31    30 1
    12    31    26 1
    13    16    15 1
    14    16    17 1
    15    39    34 ar
    16    26    23 1
    17    36    35 ar
    18    34    35 ar
    19    34    33 1
    20    10     5 ar
    21    10    11 ar
    22     6     5 1
    23     6     7 1
    24    12    11 1
    25    12    14 1
    26    15    14 1
    27    15    21 1
    28    17    22 1
    29    17    18 1
    30     5     4 ar
    31    11     2 ar
    32    22    23 1
    33    22    20 1
    34     7     8 2
    35     7     9 1
    36    23    24 2
    37    23    25 2
    38    21    20 1
    39    18    19 1
    40     4     9 1
    41     4     3 ar
    42     2     3 ar
    43     2     1 1
    44    20    19 1
    45     3    40 1
    46     6    41 1
    47     6    42 1
    48     9    43 1
    49    10    44 1
    50    14    45 1
    51    15    46 1
    52    16    47 1
    53    16    48 1
    54    17    49 1
    55    18    50 1
    56    18    51 1
    57    19    52 1
    58    19    53 1
    59    20    54 1
    60    21    55 1
    61    21    56 1
    62    27    57 1
    63    27    58 1
    64    28    59 1
    65    28    60 1
    66    29    61 1
    67    30    62 1
    68    30    63 1
    69    31    64 1
    70    31    65 1
    71    32    66 1
    72    33    67 1
    73    33    68 1
    74    35    69 1
    75    36    70 1
    76    37    71 1
    77    38    72 1
    78    39    73 1
@<TRIPOS>SUBSTRUCTURE
     1 4ZX         1 TEMP              0 ****  ****    0 ROOT
