@<TRIPOS>MOLECULE
molecule
   20    20     1     0     0
SMALL
bcc


@<TRIPOS>ATOM
      1 N1           0.0000     0.0000     0.0000 nz         1 4ZY      -0.810600
      2 C1           1.4690     0.0000     0.0000 c3         1 4ZY       0.161100
      3 C2           1.9720     0.0000     1.4210 ca         1 4ZY      -0.213300
      4 C7           2.2020    -1.1980     2.0720 ca         1 4ZY      -0.094000
      5 C6           2.6630    -1.2010     3.3740 ca         1 4ZY      -0.135000
      6 C5           2.8940     0.0020     4.0290 ca         1 4ZY       0.232600
      7 C4           2.6620     1.2030     3.3720 ca         1 4ZY      -0.135000
      8 C3           2.2070     1.2000     2.0690 ca         1 4ZY      -0.094000
      9 N2           3.3600     0.0020     5.3460 nv         1 4ZY      -0.993200
     10 H11N        -0.3340     0.0130    -0.9440 hn         1 4ZY       0.453800
     11 H12N        -0.3340     0.8110     0.4830 hn         1 4ZY       0.453800
     12 H11C         1.8300     0.8840    -0.5110 hx         1 4ZY       0.110700
     13 H12C         1.8300    -0.8840    -0.5110 hx         1 4ZY       0.110700
     14 H7           2.0210    -2.1350     1.5600 ha         1 4ZY       0.135000
     15 H3           2.0260     2.1370     1.5560 ha         1 4ZY       0.135000
     16 H6           2.8430    -2.1400     3.8830 ha         1 4ZY       0.165000
     17 H4           2.8440     2.1430     3.8800 ha         1 4ZY       0.165000
     18 H21N         4.3450     0.0020     5.5290 hn         1 4ZY       0.449800
     19 H22N         2.7100     0.0030     6.1070 hn         1 4ZY       0.449800
     20 H13         -0.3340    -0.8230     0.4610 hn         1 4ZY       0.453800
@<TRIPOS>BOND
     1     1     2 1
     2     2     3 1
     3     3     4 ar
     4     3     8 ar
     5     4     5 ar
     6     5     6 ar
     7     6     7 ar
     8     6     9 1
     9     7     8 ar
    10     1    10 1
    11     1    11 1
    12     2    12 1
    13     2    13 1
    14     4    14 1
    15     8    15 1
    16     5    16 1
    17     7    17 1
    18     9    18 1
    19     9    19 1
    20    20     1 1
@<TRIPOS>SUBSTRUCTURE
     1 4ZY         1 TEMP              0 ****  ****    0 ROOT
