@<TRIPOS>MOLECULE
4ZZ
   44    45     1     0     0
SMALL
bcc


@<TRIPOS>ATOM
      1 C14          0.0000     0.0000     0.0000 cp         1 4ZZ      -0.025000
      2 C15          1.3930     0.0000     0.0000 ca         1 4ZZ      -0.100000
      3 C16          2.0810     0.0000     1.1960 ca         1 4ZZ      -0.100000
      4 C17          1.3890    -0.0000     2.3950 ca         1 4ZZ      -0.085000
      5 C22         -2.4380    -0.8830    -2.7260 ca         1 4ZZ       0.341200
      6 C20         -1.1600     0.8840    -3.4790 ca         1 4ZZ       0.326200
      7 C19         -0.4370     0.9220    -2.2950 ca         1 4ZZ      -0.051700
      8 C18         -0.7440     0.0010    -1.2830 cp         1 4ZZ      -0.093000
      9 C2          -3.3310    -6.6130     8.3440 c3         1 4ZZ       0.227400
     10 C13         -0.6920    -0.0060     1.2090 ca         1 4ZZ      -0.076000
     11 C1          -4.0650    -6.9770     9.6380 c3         1 4ZZ      -0.003100
     12 C6          -2.5490    -3.1900     6.9240 c3         1 4ZZ       0.025000
     13 C4          -2.6520    -4.6800     7.1270 c          1 4ZZ       0.691100
     14 C12          0.0050    -0.0000     2.4000 ca         1 4ZZ      -0.122300
     15 C11         -0.7410    -0.0070     3.7090 c3         1 4ZZ       0.128300
     16 O3          -3.2690    -5.1680     8.2150 os         1 4ZZ      -0.407900
     17 O5          -2.1810    -5.4350     6.3110 o          1 4ZZ      -0.597000
     18 N7          -1.8370    -2.9160     5.6740 ns         1 4ZZ      -0.224900
     19 O9          -2.0250    -0.7230     5.9700 o          1 4ZZ      -0.710100
     20 N10         -0.9720    -1.3910     4.1330 ns         1 4ZZ      -0.217900
     21 N21         -2.1210    -0.0010    -3.6540 nb         1 4ZZ      -0.539000
     22 C23         -1.7700    -0.9180    -1.5180 ca         1 4ZZ      -0.163300
     23 H1           1.9350     0.0000    -0.9380 ha         1 4ZZ       0.112000
     24 H2           3.1640    -0.0000     1.1970 ha         1 4ZZ       0.106000
     25 H3           1.9330     0.0020     3.3320 ha         1 4ZZ       0.110000
     26 H4          -3.2350    -1.5920    -2.9150 h4         1 4ZZ      -0.018900
     27 H5          -0.9330     1.5900    -4.2690 h4         1 4ZZ      -0.015900
     28 H6          -3.8660    -7.0260     7.4970 h1         1 4ZZ       0.009700
     29 H7          -2.3280    -7.0200     8.3720 h1         1 4ZZ       0.009700
     30 H8          -1.7760    -0.0060     1.2150 ha         1 4ZZ       0.117000
     31 H9          -3.5670    -6.5110    10.4790 hc         1 4ZZ       0.012033
     32 H10         -5.0880    -6.6240     9.5840 hc         1 4ZZ       0.012033
     33 H11         -4.0600    -8.0530     9.7650 hc         1 4ZZ       0.012033
     34 H12         -3.5430    -2.7630     6.8750 h1         1 4ZZ       0.046700
     35 H13         -2.0070    -2.7500     7.7530 h1         1 4ZZ       0.046700
     36 H14         -1.6930     0.4960     3.5850 h1         1 4ZZ       0.029200
     37 H15         -0.1560     0.5080     4.4620 h1         1 4ZZ       0.029200
     38 H16         -1.5140    -3.6740     5.1050 hn         1 4ZZ       0.195500
     39 H17         -0.6620    -2.1490     3.5570 hn         1 4ZZ       0.173500
     40 H18         -2.0390    -1.6460    -0.7630 ha         1 4ZZ       0.112000
     41 H19          1.0450     2.2520    -2.9110 hn         1 4ZZ       0.274300
     42 H20          0.8820     2.1000    -1.1920 hn         1 4ZZ       0.274300
     43 N24          0.5790     1.8620    -2.1160 nv         1 4ZZ      -0.453200
     44 C8          -1.6260    -1.6430     5.2840 c          1 4ZZ       0.581100
@<TRIPOS>BOND
     1     1     2 ar  
     2     1     8 1   
     3     1    10 ar  
     4     2     3 ar  
     5     2    23 1   
     6     3     4 ar  
     7     3    24 1   
     8     4    14 ar  
     9     4    25 1   
    10     5    21 ar  
    11     5    22 ar  
    12     5    26 1   
    13     6     7 ar  
    14     6    21 ar  
    15     6    27 1   
    16     7     8 ar  
    17     7    43 1   
    18     8    22 ar  
    19     9    11 1   
    20     9    16 1   
    21     9    28 1   
    22     9    29 1   
    23    10    14 ar  
    24    10    30 1   
    25    11    31 1   
    26    11    32 1   
    27    11    33 1   
    28    12    13 1   
    29    12    18 1   
    30    12    34 1   
    31    12    35 1   
    32    13    16 1   
    33    13    17 2   
    34    14    15 1   
    35    15    20 1   
    36    15    36 1   
    37    15    37 1   
    38    18    38 1   
    39    18    44 1   
    40    19    44 2   
    41    20    39 1   
    42    20    44 1   
    43    22    40 1   
    44    41    43 1   
    45    42    43 1   
@<TRIPOS>SUBSTRUCTURE
     1 4ZZ         1 TEMP              0 ****  ****    0 ROOT
