@<TRIPOS>MOLECULE
A00
   88    90     1     0     0
SMALL
bcc


@<TRIPOS>ATOM
      1 C3           0.0000     0.0000     0.0000 c3         1 A00       0.196400
      2 C1           2.0390    -1.2500    -0.7210 c3         1 A00      -0.047400
      3 C2           3.5630    -1.1810    -0.8440 c3         1 A00      -0.029400
      4 C10          2.2040     2.6320     2.1640 ca         1 A00      -0.165500
      5 C4           1.5430    -1.0140     2.3260 c3         1 A00       0.225800
      6 C5           0.2180    -0.5580     2.9410 c3         1 A00      -0.112700
      7 C6          -0.3510    -1.6770     3.8150 c3         1 A00      -0.020100
      8 C7           0.4560     0.6870     3.7970 c3         1 A00      -0.020100
      9 C12          1.2400     4.2050     3.6900 ca         1 A00      -0.149500
     10 C11          1.9470     3.0420     3.4600 ca         1 A00       0.007500
     11 O26         10.1400    -4.2460    -2.4730 o          1 A00      -0.644000
     12 O25         11.3690    -3.6810    -4.2320 os         1 A00      -0.428900
     13 C27         12.5230    -3.5840    -3.3560 c3         1 A00       0.285700
     14 N22          9.1260    -4.2900    -4.4480 ns         1 A00      -0.147900
     15 C21          7.8420    -4.6300    -3.8330 c3         1 A00      -0.026300
     16 C28          8.0180    -5.8490    -2.9240 c3         1 A00       0.026900
     17 C30          6.6740    -6.2850    -2.4020 ca         1 A00      -0.080300
     18 C40          6.4610    -6.3820    -1.0400 ca         1 A00      -0.102250
     19 C39          5.2270    -6.7820    -0.5600 ca         1 A00      -0.097750
     20 C38          4.2080    -7.0850    -1.4430 ca         1 A00      -0.104000
     21 C37          4.4210    -6.9880    -2.8050 ca         1 A00      -0.097750
     22 C36          5.6520    -6.5820    -3.2840 ca         1 A00      -0.102250
     23 C29          8.6410    -6.9750    -3.7100 ca         1 A00      -0.080300
     24 C35          9.6370    -7.7460    -3.1420 ca         1 A00      -0.102250
     25 C34         10.2080    -8.7790    -3.8630 ca         1 A00      -0.097750
     26 C33          9.7820    -9.0390    -5.1520 ca         1 A00      -0.104000
     27 C32          8.7860    -8.2680    -5.7200 ca         1 A00      -0.097750
     28 C31          8.2110    -7.2390    -4.9970 ca         1 A00      -0.102250
     29 C20          7.3510    -3.4630    -3.0160 c          1 A00       0.552100
     30 O23          8.1290    -2.6080    -2.6500 o          1 A00      -0.616100
     31 N19          6.0460    -3.3690    -2.6920 ns         1 A00      -0.206900
     32 C18          5.5680    -2.2330    -1.8980 c3         1 A00       0.051000
     33 C17          4.0620    -2.3660    -1.6730 c3         1 A00      -0.041400
     34 C            1.5290     0.0000     0.0000 c3         1 A00       0.195500
     35 O           -0.4770    -1.2380     0.5310 oh         1 A00      -0.579800
     36 N            2.0170     0.0000     1.3810 n3         1 A00      -0.511500
     37 S            3.1060     1.1470     1.8740 sy         1 A00       1.048200
     38 O8           3.9530     1.4020     0.7620 o          1 A00      -0.588300
     39 O9           3.5930     0.7190     3.1390 o          1 A00      -0.588300
     40 C15          1.7500     3.3830     1.0950 ca         1 A00       0.007500
     41 C14          1.0430     4.5480     1.3190 ca         1 A00      -0.149500
     42 C13          0.7880     4.9650     2.6190 ca         1 A00       0.085600
     43 N16          0.0720     6.1430     2.8490 nv         1 A00      -0.569200
     44 H31A        -0.3610     0.1200    -1.0140 h1         1 A00      -0.000800
     45 H32A        -0.3610     0.8180     0.6110 h1         1 A00      -0.000800
     46 H11A         1.7620    -2.1310    -0.1570 hc         1 A00       0.024700
     47 H12A         1.6000    -1.3010    -1.7100 hc         1 A00       0.024700
     48 H21A         4.0070    -1.2180     0.1430 hc         1 A00       0.033700
     49 H22          3.8440    -0.2550    -1.3310 hc         1 A00       0.033700
     50 H41          1.3950    -1.9520     1.8050 h1         1 A00       0.040200
     51 H42          2.2780    -1.1480     3.1100 h1         1 A00       0.040200
     52 H5          -0.4850    -0.3240     2.1500 hc         1 A00       0.067700
     53 H61         -1.3400    -1.4000     4.1580 hc         1 A00       0.009367
     54 H62         -0.4120    -2.5910     3.2360 hc         1 A00       0.009367
     55 H63          0.2970    -1.8330     4.6690 hc         1 A00       0.009367
     56 H71          1.4170     0.6080     4.2910 hc         1 A00       0.009367
     57 H72          0.4450     1.5680     3.1660 hc         1 A00       0.009367
     58 H73         -0.3270     0.7680     4.5420 hc         1 A00       0.009367
     59 H12          1.0410     4.5260     4.7050 ha         1 A00       0.114000
     60 H11          2.3000     2.4490     4.2950 ha         1 A00       0.123000
     61 H271        12.2890    -2.9330    -2.5220 h1         1 A00      -0.000633
     62 H272        12.7790    -4.5690    -2.9850 h1         1 A00      -0.000633
     63 H273        13.3620    -3.1760    -3.9080 h1         1 A00      -0.000633
     64 HN22         9.1890    -4.1700    -5.4400 hn         1 A00       0.171500
     65 H21          7.1190    -4.8580    -4.6070 h1         1 A00       0.040700
     66 H28          8.6620    -5.5900    -2.0930 hc         1 A00       0.104700
     67 H40          7.2600    -6.1440    -0.3480 ha         1 A00       0.111750
     68 H39          5.0600    -6.8580     0.5080 ha         1 A00       0.102750
     69 H38          3.2420    -7.4010    -1.0670 ha         1 A00       0.102500
     70 H37          3.6210    -7.2230    -3.4970 ha         1 A00       0.102750
     71 H36          5.8190    -6.5060    -4.3510 ha         1 A00       0.111750
     72 H35          9.9710    -7.5420    -2.1310 ha         1 A00       0.111750
     73 H34         10.9890    -9.3830    -3.4180 ha         1 A00       0.102750
     74 H33         10.2310    -9.8470    -5.7180 ha         1 A00       0.102500
     75 H32          8.4510    -8.4740    -6.7300 ha         1 A00       0.102750
     76 H31          7.4300    -6.6350    -5.4430 ha         1 A00       0.111750
     77 HN19         5.3940    -4.0420    -3.0430 hn         1 A00       0.181500
     78 H181         6.0770    -2.2210    -0.9420 h1         1 A00       0.031200
     79 H182         5.7740    -1.3110    -2.4280 h1         1 A00       0.031200
     80 H171         3.5530    -2.3780    -2.6300 hc         1 A00       0.012700
     81 H172         3.8560    -3.2890    -1.1440 hc         1 A00       0.012700
     82 H            1.8900     0.8840    -0.5110 h1         1 A00       0.046700
     83 HO          -1.2340    -1.5180     0.0440 ho         1 A00       0.385000
     84 H15          1.9510     3.0580     0.0810 ha         1 A00       0.123000
     85 H14          0.6890     5.1370     0.4810 ha         1 A00       0.114000
     86 H161        -0.9260     6.1190     2.9090 hn         1 A00       0.278800
     87 H162         0.5600     7.0100     2.9640 hn         1 A00       0.278800
     88 C24         10.2100    -4.0780    -3.6740 c          1 A00       0.696100
@<TRIPOS>BOND
     1     1    34 1   
     2     1    35 1   
     3     1    44 1   
     4     1    45 1   
     5     2     3 1   
     6     2    34 1   
     7     2    46 1   
     8     2    47 1   
     9     3    33 1   
    10     3    48 1   
    11     3    49 1   
    12     4    10 ar  
    13     4    37 1   
    14     4    40 ar  
    15     5     6 1   
    16     5    36 1   
    17     5    50 1   
    18     5    51 1   
    19     6     7 1   
    20     6     8 1   
    21     6    52 1   
    22     7    53 1   
    23     7    54 1   
    24     7    55 1   
    25     8    56 1   
    26     8    57 1   
    27     8    58 1   
    28     9    10 ar  
    29     9    42 ar  
    30     9    59 1   
    31    10    60 1   
    32    11    88 2   
    33    12    13 1   
    34    12    88 1   
    35    13    61 1   
    36    13    62 1   
    37    13    63 1   
    38    14    15 1   
    39    14    64 1   
    40    14    88 1   
    41    15    16 1   
    42    15    29 1   
    43    15    65 1   
    44    16    17 1   
    45    16    23 1   
    46    16    66 1   
    47    17    18 ar  
    48    17    22 ar  
    49    18    19 ar  
    50    18    67 1   
    51    19    20 ar  
    52    19    68 1   
    53    20    21 ar  
    54    20    69 1   
    55    21    22 ar  
    56    21    70 1   
    57    22    71 1   
    58    23    24 ar  
    59    23    28 ar  
    60    24    25 ar  
    61    24    72 1   
    62    25    26 ar  
    63    25    73 1   
    64    26    27 ar  
    65    26    74 1   
    66    27    28 ar  
    67    27    75 1   
    68    28    76 1   
    69    29    30 2   
    70    29    31 1   
    71    31    32 1   
    72    31    77 1   
    73    32    33 1   
    74    32    78 1   
    75    32    79 1   
    76    33    80 1   
    77    33    81 1   
    78    34    36 1   
    79    34    82 1   
    80    35    83 1   
    81    36    37 1   
    82    37    38 2   
    83    37    39 2   
    84    40    41 ar  
    85    40    84 1   
    86    41    42 ar  
    87    41    85 1   
    88    42    43 1   
    89    43    86 1   
    90    43    87 1   
@<TRIPOS>SUBSTRUCTURE
     1 A00         1 TEMP              0 ****  ****    0 ROOT
