@<TRIPOS>MOLECULE
A04
   25    26     1     0     0
SMALL
bcc


@<TRIPOS>ATOM
      1 OAQ         0.0060   -1.2150   -0.5440 o         1 A04     -0.793800
      2 CAB         1.2050   -0.9290   -0.3080 c         1 A04      0.828100
      3 OAR         1.7970   -1.0410    0.7970 o         1 A04     -0.793800
      4 CAA         2.0440   -0.3580   -1.4460 cc        1 A04      0.287200
      5 OAP         1.6960   -0.6670   -2.7500 os        1 A04     -0.310800
      6 CAD         3.1530    0.4900   -1.4390 cd        1 A04     -0.321300
      7 CAE         3.5040    0.7290   -2.8050 cd        1 A04     -0.214300
      8 CAC         2.6000    0.0100   -3.5870 cc        1 A04      0.190200
      9 CAG         2.4650   -0.1280   -5.0060 ca        1 A04     -0.040500
     10 CAK         3.1880    0.7420   -5.8490 ca        1 A04     -0.141000
     11 CAH         3.0880    0.6560   -7.2310 ca        1 A04     -0.126000
     12 CAF         2.2630   -0.3020   -7.8240 ca        1 A04     -0.154000
     13 CAI         1.5440   -1.1820   -7.0240 ca        1 A04     -0.132000
     14 CAJ         1.6490   -1.0960   -5.6290 ca        1 A04      0.082100
     15 OAS         1.0520   -2.0840   -4.8490 os        1 A04     -0.346900
     16 CAL        -0.3450   -2.0650   -4.7200 c3        1 A04      0.823700
     17 FAN        -0.9300   -2.4860   -5.8800 f         1 A04     -0.217967
     18 FAO        -0.6320   -2.9680   -3.7550 f         1 A04     -0.217967
     19 FAM        -0.8600   -0.8520   -4.4150 f         1 A04     -0.217967
     20 HAD         3.6500    0.8800   -0.5570 ha        1 A04      0.159000
     21 HAE         4.3230    1.3470   -3.1580 ha        1 A04      0.132000
     22 HAK         3.8350    1.5050   -5.3900 ha        1 A04      0.136000
     23 HAH         3.6610    1.3510   -7.8640 ha        1 A04      0.121000
     24 HAF         2.1840   -0.3630   -8.9180 ha        1 A04      0.123000
     25 HAI         0.8890   -1.9480   -7.4680 ha        1 A04      0.144000
@<TRIPOS>BOND
     1    1    2 1   
     2    2    3 1   
     3    2    4 1   
     4    4    5 1   
     5    4    6 2   
     6    5    8 1   
     7    6    7 1   
     8    6   20 1   
     9    7    8 2   
    10    7   21 1   
    11    8    9 1   
    12    9   10 ar  
    13    9   14 ar  
    14   10   11 ar  
    15   10   22 1   
    16   11   12 ar  
    17   11   23 1   
    18   12   13 ar  
    19   12   24 1   
    20   13   14 ar  
    21   13   25 1   
    22   14   15 1   
    23   15   16 1   
    24   16   17 1   
    25   16   18 1   
    26   16   19 1   
@<TRIPOS>SUBSTRUCTURE
     1 A04         1 TEMP              0 ****  ****    0 ROOT
