@<TRIPOS>MOLECULE
A05
   23    24     1     0     0
SMALL
bcc


@<TRIPOS>ATOM
      1 OAN         0.1480   -1.3020   -0.5770 o         1 A05     -0.785800
      2 CAB         1.2310   -0.7740   -0.2270 c         1 A05      0.826100
      3 OAO         1.6560   -0.6290    0.9470 o         1 A05     -0.785800
      4 CAA         2.1520   -0.2430   -1.3250 cc        1 A05      0.302200
      5 OAM         1.7450   -0.3700   -2.6340 os        1 A05     -0.326800
      6 CAD         3.4010    0.3840   -1.2760 cd        1 A05     -0.325300
      7 CAE         3.7840    0.6580   -2.6230 cd        1 A05     -0.168300
      8 CAC         2.7580    0.1910   -3.4500 cc        1 A05      0.159200
      9 CAG         2.5030    0.1460   -4.8550 ca        1 A05      0.008500
     10 CAK         1.2930   -0.4420   -5.3000 ca        1 A05     -0.143000
     11 CAH         0.9680   -0.5260   -6.6400 ca        1 A05     -0.062000
     12 CAF         1.8630   -0.0140   -7.6000 ca        1 A05     -0.215200
     13 NAL         1.5310   -0.0960   -9.0370 no        1 A05      0.320200
     14 OAQ         0.4930   -0.6030   -9.3770 o         1 A05     -0.232000
     15 OAP         2.3050    0.3460   -9.8490 o         1 A05     -0.232000
     16 CAI         3.0690    0.5750   -7.1970 ca        1 A05     -0.056000
     17 CAJ         3.3810    0.6520   -5.8390 ca        1 A05     -0.025600
     18 CLAR        4.8680    1.3850   -5.4490 cl        1 A05     -0.094400
     19 HAD         3.9610    0.6120   -0.3750 ha        1 A05      0.167000
     20 HAE         4.7070    1.1430   -2.9300 ha        1 A05      0.149000
     21 HAK         0.5950   -0.8420   -4.5410 ha        1 A05      0.186000
     22 HAH         0.0180   -0.9900   -6.9590 ha        1 A05      0.164000
     23 HAI         3.7670    0.9760   -7.9530 ha        1 A05      0.168000
@<TRIPOS>BOND
     1    1    2 1   
     2    2    3 1   
     3    2    4 1   
     4    4    5 1   
     5    4    6 2   
     6    5    8 1   
     7    6    7 1   
     8    6   19 1   
     9    7    8 2   
    10    7   20 1   
    11    8    9 1   
    12    9   10 ar  
    13    9   17 ar  
    14   10   11 ar  
    15   10   21 1   
    16   11   12 ar  
    17   11   22 1   
    18   12   13 1   
    19   12   16 ar  
    20   13   14 1   
    21   13   15 1   
    22   16   17 ar  
    23   16   23 1   
    24   17   18 1   
@<TRIPOS>SUBSTRUCTURE
     1 A05         1 TEMP              0 ****  ****    0 ROOT
