@<TRIPOS>MOLECULE
A06
   36    35     1     0     0
SMALL
bcc


@<TRIPOS>ATOM
      1 C1         -3.4020    0.7160    1.0080 c2        1 A06      0.218000
      2 C6          2.6710    0.2180   -0.6310 c2        1 A06     -0.102000
      3 C5          3.8410   -0.3410   -0.6100 c1        1 A06     -0.201000
      4 C4          5.0060   -0.9150   -0.5730 c2        1 A06     -0.141000
      5 C3         -5.7450    0.5480    2.1090 c1        1 A06      0.133000
      6 C2         -4.6060    0.6240    1.5550 c1        1 A06     -0.595000
      7 C8         -2.7680   -1.7870   -4.0520 c2        1 A06     -0.010000
      8 C9         -1.6310   -2.2600   -4.8850 c3        1 A06      0.000000
      9 C10        -1.2150   -1.2840   -5.8480 c1        1 A06     -0.126000
     10 C11        -0.8550   -0.4800   -6.6580 c1        1 A06     -0.194000
     11 C12        -4.7810   -2.9490   -5.1310 c1        1 A06     -0.073000
     12 C13        -4.1760   -2.1260   -4.1830 c2        1 A06     -0.235000
     13 N14        -4.8760   -1.4540   -3.1550 n2        1 A06     -0.063000
     14 C15        -3.9590   -0.7580   -2.4550 c2        1 A06     -0.071000
     15 C14        -3.0410    0.3710   -0.3910 c3        1 A06     -0.130000
     16 C16        -4.2490    0.1210   -1.2810 c3        1 A06     -0.084000
     17 C17        -2.1180    1.4520   -0.9550 c3        1 A06     -0.233000
     18 C18        -0.6550    0.9970   -0.8910 c2        1 A06      0.325000
     19 O1          0.1510    1.6240   -0.1570 o         1 A06     -0.573000
     20 O2         -0.3150   -0.0140   -1.5910 o         1 A06     -0.573000
     21 N9         -2.6520   -0.9380   -2.9890 na        1 A06     -0.162000
     22 CL2         6.2740   -0.5210   -1.6510 cl        1 A06     -0.087000
     23 H6          2.4150    1.1210   -0.0480 ha        1 A06      0.189000
     24 H2         -2.5400    1.0690    1.6170 ha        1 A06      0.143000
     25 H5          1.8080   -0.1640   -1.2160 ha        1 A06      0.189000
     26 H3          5.3000   -1.6980    0.1350 h4        1 A06      0.143000
     27 HA         -1.7980   -0.5460   -2.6040 hn        1 A06      0.327000
     28 H10        -1.9540   -3.1990   -5.4210 hc        1 A06      0.127000
     29 H12        -4.0810   -3.4180   -5.8470 ha        1 A06      0.013000
     30 H14        -2.3780    1.6640   -2.0220 hc        1 A06      0.090000
     31 H161       -2.4440   -0.5930   -0.3070 hc        1 A06      0.149000
     32 H162       -5.0700   -0.3590   -0.6780 hc        1 A06      0.115500
     33 H171       -4.6460    1.1000   -1.6660 hc        1 A06      0.115500
     34 H172       -2.2310    2.4090   -0.3860 hc        1 A06      0.090000
     35 CL1        -0.3700    0.5940   -7.7340 cl        1 A06      0.156000
     36 H9         -0.7530   -2.5240   -4.2250 hc        1 A06      0.127000
@<TRIPOS>BOND
     1    1    6 1   
     2    1   15 1   
     3    1   24 1   
     4    2    3 1   
     5    2   23 1   
     6    2   25 1   
     7    3    4 1   
     8    4   22 1   
     9    4   26 1   
    10    5    6 1   
    11    7    8 1   
    12    7   12 1   
    13    7   21 1   
    14    8    9 1   
    15    8   28 1   
    16    8   36 1   
    17    9   10 1   
    18   10   35 1   
    19   11   12 1   
    20   11   29 1   
    21   12   13 1   
    22   13   14 1   
    23   14   16 1   
    24   14   21 1   
    25   15   16 1   
    26   15   17 1   
    27   15   31 1   
    28   16   32 1   
    29   16   33 1   
    30   17   18 1   
    31   17   30 1   
    32   17   34 1   
    33   18   19 1   
    34   18   20 1   
    35   21   27 1   
@<TRIPOS>SUBSTRUCTURE
     1 A06         1 TEMP              0 ****  ****    0 ROOT
