@<TRIPOS>MOLECULE
molecule
   36    38     1     0     0
SMALL
bcc


@<TRIPOS>ATOM
      1 C1           0.0000     0.0000     0.0000 ca         1 A06      -0.023300
      2 C6           1.3820     0.0000     0.0000 ca         1 A06      -0.096000
      3 C5           2.0730     0.0000     1.1970 ca         1 A06      -0.130500
      4 C4           1.3810    -0.0000     2.3950 ca         1 A06       0.016400
      5 C3          -0.0030    -0.0010     2.3940 ca         1 A06      -0.130500
      6 C2          -0.6920    -0.0010     1.1960 ca         1 A06      -0.096000
      7 C8          -2.9440    -2.0170    -4.7310 ca         1 A06      -0.104200
      8 C9          -3.2310    -2.6660    -5.9240 ca         1 A06      -0.125000
      9 C10         -4.0150    -2.0440    -6.8720 ca         1 A06      -0.123000
     10 C11         -4.5210    -0.7720    -6.6420 ca         1 A06       0.003400
     11 C12         -4.2470    -0.1130    -5.4640 ca         1 A06      -0.057000
     12 C13         -3.4540    -0.7300    -4.4930 ca         1 A06       0.109400
     13 N14         -3.0160    -0.3520    -3.2640 nc         1 A06      -0.573100
     14 C15         -2.2900    -1.3010    -2.7490 cd         1 A06       0.447800
     15 C14         -0.7530     0.0060    -1.3060 c3         1 A06      -0.006400
     16 C16         -1.6320    -1.2430    -1.3940 c3         1 A06      -0.087700
     17 C17         -1.6330     1.2550    -1.3810 c3         1 A06      -0.195400
     18 C18         -0.7600     2.4830    -1.4180 c          1 A06       0.893600
     19 O1          -1.3190     3.7020    -1.4850 o          1 A06      -0.853800
     20 O2           0.4420     2.3700    -1.3880 o          1 A06      -0.853800
     21 N9          -2.2180    -2.3530    -3.6070 na         1 A06      -0.270300
     22 Cl2          2.2480    -0.0010     3.8990 cl         1 A06      -0.156400
     23 H6           1.9230     0.0010    -0.9380 ha         1 A06       0.138500
     24 H2          -1.7760    -0.0020     1.1950 ha         1 A06       0.138500
     25 H5           3.1570     0.0000     1.1980 ha         1 A06       0.127500
     26 H3          -0.5460    -0.0020     3.3320 ha         1 A06       0.127500
     27 HA          -1.7230    -3.2090    -3.4540 hn         1 A06       0.296700
     28 H10         -4.2380    -2.5520    -7.8030 ha         1 A06       0.135000
     29 H12         -4.6460     0.8790    -5.2910 ha         1 A06       0.162000
     30 H14         -0.0490     0.0100    -2.1290 hc         1 A06       0.073700
     31 H161        -1.0200    -2.1260    -1.2520 hc         1 A06       0.049700
     32 H162        -2.3930    -1.2050    -0.6240 hc         1 A06       0.049700
     33 H171        -2.2390     1.2160    -2.2790 hc         1 A06       0.057700
     34 H172        -2.2780     1.2960    -0.5120 hc         1 A06       0.057700
     35 Cl1         -5.5060    -0.0050    -7.8480 cl         1 A06      -0.127400
     36 H9          -2.8390    -3.6590    -6.1100 ha         1 A06       0.122000
@<TRIPOS>BOND
     1     1     2 ar
     2     1     6 ar
     3     1    15 1
     4     2     3 ar
     5     3     4 ar
     6     4     5 ar
     7     4    22 1
     8     5     6 ar
     9     7     8 ar
    10     7    12 ar
    11     7    21 1
    12     8     9 ar
    13     9    10 ar
    14    10    11 ar
    15    10    35 1
    16    11    12 ar
    17    12    13 1
    18    13    14 2
    19    14    16 1
    20    14    21 1
    21    15    16 1
    22    15    17 1
    23    17    18 1
    24    18    19 1
    25    18    20 1
    26    15    30 1
    27     2    23 1
    28     6    24 1
    29     3    25 1
    30     5    26 1
    31     8    36 1
    32    21    27 1
    33     9    28 1
    34    11    29 1
    35    16    31 1
    36    16    32 1
    37    17    33 1
    38    17    34 1
@<TRIPOS>SUBSTRUCTURE
     1 A06         1 TEMP              0 ****  ****    0 ROOT
