@<TRIPOS>MOLECULE
molecule
   38    40     1     0     0
SMALL
bcc


@<TRIPOS>ATOM
      1 C1           0.0000     0.0000     0.0000 cp         1 A07      -0.040000
      2 C2           1.3930     0.0000     0.0000 ca         1 A07      -0.110500
      3 C3           2.0810     0.0000     1.1970 ca         1 A07      -0.130500
      4 C4           1.3900     0.0010     2.3950 ca         1 A07      -0.124000
      5 C5           0.0070     0.0000     2.4010 ca         1 A07      -0.130500
      6 C6          -0.6910     0.0010     1.2100 ca         1 A07      -0.110500
      7 C12         -0.4190     0.9410    -2.2750 ca         1 A07       0.084400
      8 C13         -1.0900     0.9560    -3.4630 ca         1 A07      -0.158000
      9 C14         -2.1150     0.0410    -3.7000 ca         1 A07       0.001800
     10 C15         -2.4540    -0.8990    -2.7090 ca         1 A07      -0.264900
     11 C16         -1.7630    -0.9100    -1.4950 ca         1 A07      -0.038000
     12 C17         -0.7440     0.0070    -1.2830 cp         1 A07      -0.077000
     13 N20         -2.9490    -0.1860    -4.7640 na         1 A07      -0.046100
     14 N21         -3.8040    -1.2500    -4.4590 nc         1 A07      -0.481100
     15 C22         -3.5490    -1.7010    -3.2590 cd         1 A07       0.436500
     16 N23         -4.2030    -2.7590    -2.6180 ns         1 A07      -0.463400
     17 C24         -5.2000    -3.4140    -3.2440 c          1 A07       0.647100
     18 C25         -5.9040    -4.5520    -2.5530 c3         1 A07      -0.155400
     19 C26         -6.9860    -5.1180    -3.4750 c3         1 A07      -0.069400
     20 C29         -7.7010    -6.2740    -2.7730 c3         1 A07      -0.096100
     21 O35         -5.5310    -3.0870    -4.3640 o          1 A07      -0.547100
     22 H2           1.9360    -0.0010    -0.9380 ha         1 A07       0.135500
     23 H3           3.1650     0.0000     1.1980 ha         1 A07       0.130500
     24 H4           1.9340     0.0000     3.3320 ha         1 A07       0.129000
     25 H5          -0.5300     0.0010     3.3420 ha         1 A07       0.130500
     26 H6          -1.7740     0.0010     1.2160 ha         1 A07       0.135500
     27 H13         -0.8280     1.6820    -4.2240 ha         1 A07       0.147000
     28 H16         -1.9240    -1.7140    -0.7870 ha         1 A07       0.138000
     29 HN23        -3.9300    -3.0290    -1.6940 hn         1 A07       0.333500
     30 H25         -6.3610    -4.1930    -1.6390 hc         1 A07       0.060700
     31 H25A        -5.1880    -5.3300    -2.3170 hc         1 A07       0.060700
     32 H26         -6.5300    -5.4780    -4.3890 hc         1 A07       0.059700
     33 H26A        -7.7030    -4.3410    -3.7100 hc         1 A07       0.059700
     34 H29         -6.9840    -7.0520    -2.5370 hc         1 A07       0.035033
     35 H29A        -8.1580    -5.9150    -1.8590 hc         1 A07       0.035033
     36 H29B        -8.4660    -6.6750    -3.4260 hc         1 A07       0.035033
     37 HN20        -2.9470     0.3280    -5.6220 hn         1 A07       0.339700
     38 Cl1          0.8540     2.0870    -1.9920 cl         1 A07      -0.094400
@<TRIPOS>BOND
     1    12     1 1
     2     1     2 ar
     3     1     6 ar
     4    38     7 1
     5     2     3 ar
     6     2    22 1
     7     3     4 ar
     8     3    23 1
     9     5     4 ar
    10     4    24 1
    11     6     5 ar
    12     5    25 1
    13     6    26 1
    14     8     7 ar
    15     7    12 ar
    16     8     9 ar
    17     8    27 1
    18    13     9 1
    19     9    10 ar
    20    15    10 1
    21    10    11 ar
    22    12    11 ar
    23    11    28 1
    24    13    14 1
    25    14    15 2
    26    15    16 1
    27    16    17 1
    28    16    29 1
    29    17    21 2
    30    17    18 1
    31    19    18 1
    32    18    30 1
    33    18    31 1
    34    19    20 1
    35    19    32 1
    36    19    33 1
    37    20    34 1
    38    20    35 1
    39    20    36 1
    40    13    37 1
@<TRIPOS>SUBSTRUCTURE
     1 A07         1 TEMP              0 ****  ****    0 ROOT
