@<TRIPOS>MOLECULE
molecule
   25    26     1     0     0
SMALL
bcc


@<TRIPOS>ATOM
      1 Cl1          0.0000     0.0000     0.0000 cl         1 A08      -0.102400
      2 C1           1.7360     0.0000     0.0000 ca         1 A08       0.038400
      3 C2           2.4280     0.0000     1.1980 ca         1 A08      -0.119500
      4 C3           3.8100     0.0000     1.1980 ca         1 A08      -0.100500
      5 C4           4.5010     0.0000    -0.0000 ca         1 A08      -0.090300
      6 C5           3.8100    -0.0000    -1.1980 ca         1 A08      -0.100500
      7 C6           2.4280    -0.0070    -1.1970 ca         1 A08      -0.119500
      8 C7           6.0080     0.0010     0.0000 c3         1 A08       0.006400
      9 C8           6.5110    -1.2290    -0.7100 ca         1 A08       0.442600
     10 C9           6.6450    -1.2180    -2.0850 ca         1 A08      -0.244300
     11 C10          7.1070    -2.3550    -2.7300 ca         1 A08      -0.078000
     12 C11          7.4210    -3.4670    -1.9630 ca         1 A08      -0.232300
     13 C12          7.2600    -3.4050    -0.5900 ca         1 A08       0.527300
     14 N14          6.8220    -2.3030    -0.0100 nb         1 A08      -0.681000
     15 Cl2          7.6480    -4.7900     0.3820 cl         1 A08      -0.150000
     16 C16          6.4980     1.2030    -0.6950 c1         1 A08       0.215700
     17 N17          6.8920     2.1200    -1.2360 n1         1 A08      -0.355800
     18 H1           1.8870    -0.0310     2.1360 ha         1 A08       0.148500
     19 H2           4.3520     0.0000     2.1360 ha         1 A08       0.142000
     20 H3           4.3520    -0.0000    -2.1360 ha         1 A08       0.142000
     21 H4           1.8870    -0.0440    -2.1350 ha         1 A08       0.148500
     22 H5           6.3690     0.0020     1.0220 hc         1 A08       0.109700
     23 H6           6.3380    -0.3470    -2.6520 ha         1 A08       0.150000
     24 H7           7.2180    -2.3600    -3.8070 ha         1 A08       0.150000
     25 H8           7.7840    -4.3690    -2.4400 ha         1 A08       0.155000
@<TRIPOS>BOND
     1    11    10 ar
     2    11    12 ar
     3    10     9 ar
     4    12    13 ar
     5     9     8 1
     6     9    14 ar
     7     8    16 1
     8     8     5 1
     9    16    17 3
    10    13    14 ar
    11    13    15 1
    12     6     5 ar
    13     6     7 ar
    14     5     4 ar
    15     7     2 ar
    16     4     3 ar
    17     2     3 ar
    18     2     1 1
    19     3    18 1
    20     4    19 1
    21     6    20 1
    22     7    21 1
    23     8    22 1
    24    10    23 1
    25    11    24 1
    26    12    25 1
@<TRIPOS>SUBSTRUCTURE
     1 A08         1 TEMP              0 ****  ****    0 ROOT
