@<TRIPOS>MOLECULE
A09
   18    18     1     0     0
SMALL
bcc


@<TRIPOS>ATOM
      1 C1           0.0000     0.0000     0.0000 ca         1 A09      -0.156500
      2 N1          -1.1270    -1.5830    -1.9500 n7         1 A09      -0.360600
      3 O1          -2.1650     0.5440    -1.2480 o          1 A09      -0.578800
      4 S1          -0.8820    -0.0010    -1.5260 sy         1 A09       1.056200
      5 C2           1.3830     0.0000     0.0000 ca         1 A09       0.011000
      6 O2          -0.0000     0.5440    -2.4980 o          1 A09      -0.578800
      7 C3           2.0740     0.0000     1.1970 ca         1 A09      -0.135000
      8 O3          -1.9450    -2.4130    -1.1460 oh         1 A09      -0.373300
      9 C4           1.3830     0.0000     2.3940 ca         1 A09      -0.045000
     10 C5           0.0010     0.0000     2.3950 ca         1 A09      -0.135000
     11 C6          -0.6910     0.0060     1.1980 ca         1 A09       0.011000
     12 HN1         -0.7120    -1.9460    -2.7850 hn         1 A09       0.326800
     13 H2           1.9240    -0.0000    -0.9380 ha         1 A09       0.122500
     14 H3           3.1570    -0.0000     1.1960 ha         1 A09       0.108500
     15 HO3         -2.2070    -3.1710    -1.6420 ho         1 A09       0.396000
     16 H4           1.9250    -0.0020     3.3320 ha         1 A09       0.101000
     17 H5          -0.5400     0.0030     3.3330 ha         1 A09       0.108500
     18 H6          -1.7740     0.0060     1.1980 ha         1 A09       0.122500
@<TRIPOS>BOND
     1     1     4 1   
     2     1     5 ar  
     3     1    11 ar  
     4     2     4 1   
     5     2     8 1   
     6     2    12 1   
     7     3     4 2   
     8     4     6 2   
     9     5     7 ar  
    10     5    13 1   
    11     7     9 ar  
    12     7    14 1   
    13     8    15 1   
    14     9    10 ar  
    15     9    16 1   
    16    10    11 ar  
    17    10    17 1   
    18    11    18 1   
@<TRIPOS>SUBSTRUCTURE
     1 A09         1 TEMP              0 ****  ****    0 ROOT
