@<TRIPOS>MOLECULE
molecule
   18    17     1     0     0
SMALL
bcc


@<TRIPOS>ATOM
      1 N            0.0000     0.0000     0.0000 nz         1 A0A      -0.796600
      2 CA           1.4690     0.0000     0.0000 c3         1 A0A      -0.002500
      3 C            1.9710    -1.2310    -0.7090 c          1 A0A       0.863600
      4 O            3.2260    -1.2660    -1.1870 o          1 A0A      -0.765800
      5 CB           1.9780     0.0000     1.4430 c3         1 A0A      -0.138400
      6 CG           1.5800     1.2890     2.1160 c          1 A0A       0.647100
      7 OD1          0.9520     2.1200     1.5040 o          1 A0A      -0.580000
      8 OD2          1.9230     1.5120     3.3970 os         1 A0A      -0.421200
      9 CM1          1.5360     2.6820     3.9380 c          1 A0A       0.635900
     10 OM2          1.8140     2.9390     5.0850 o          1 A0A      -0.442000
     11 OXT          1.2460    -2.1870    -0.8480 o          1 A0A      -0.765800
     12 HN1         -0.3340    -0.2960    -0.8960 hn         1 A0A       0.445800
     13 HN2         -0.3340     0.9240     0.1920 hn         1 A0A       0.445800
     14 HA           1.8300     0.8840    -0.5110 hx         1 A0A       0.121700
     15 HBC1         3.0580    -0.0900     1.4450 hc         1 A0A       0.122700
     16 HBC2         1.5460    -0.8360     1.9790 hc         1 A0A       0.122700
     17 HM1          0.9850     3.3990     3.3400 h5         1 A0A       0.059200
     18 HN3         -0.3340    -0.6090     0.7210 hn         1 A0A       0.445800
@<TRIPOS>BOND
     1     8     6 1
     2     8     9 1
     3     6     7 2
     4     6     5 1
     5     5     2 1
     6     2     1 1
     7     2     3 1
     8     3     4 1
     9     3    11 1
    10    10     9 2
    11     9    17 1
    12     5    15 1
    13     5    16 1
    14     2    14 1
    15     1    12 1
    16     1    13 1
    17    18     1 1
@<TRIPOS>SUBSTRUCTURE
     1 A0A         1 TEMP              0 ****  ****    0 ROOT
