@<TRIPOS>MOLECULE
A0A
   18    17     1     0     0
SMALL
bcc


@<TRIPOS>ATOM
      1 N            0.0000     0.0000     0.0000 nz         1 A0A       0.070400
      2 CA           1.4690     0.0000     0.0000 c3         1 A0A      -0.187500
      3 C            1.9710    -1.2310    -0.7090 c          1 A0A       0.949600
      4 O            3.2260    -1.2660    -1.1870 o          1 A0A      -0.810800
      5 CB           1.9780     0.0000     1.4430 c3         1 A0A      -0.069400
      6 CG           1.5800     1.2890     2.1160 c          1 A0A       0.713100
      7 OD1          0.9520     2.1200     1.5040 o          1 A0A      -0.622000
      8 OD2          1.9230     1.5120     3.3970 os         1 A0A      -0.410200
      9 CM1          1.5360     2.6820     3.9380 c          1 A0A       0.728900
     10 OM2          1.8140     2.9390     5.0850 o          1 A0A      -0.486000
     11 OXT          1.2460    -2.1870    -0.8480 o          1 A0A      -0.810800
     12 HN1         -0.3340    -0.2960    -0.8960 hn         1 A0A       0.218467
     13 HN2         -0.3340     0.9240     0.1920 hn         1 A0A       0.218467
     14 HA           1.8300     0.8840    -0.5110 hx         1 A0A       0.101700
     15 HBC1         3.0580    -0.0900     1.4450 hc         1 A0A       0.081200
     16 HBC2         1.5460    -0.8360     1.9790 hc         1 A0A       0.081200
     17 HM1          0.9850     3.3990     3.3400 h5         1 A0A       0.014200
     18 HN3         -0.3340    -0.6090     0.7210 hn         1 A0A       0.218467
@<TRIPOS>BOND
     1     1     2 1   
     2     1    12 1   
     3     1    13 1   
     4     1    18 1   
     5     2     3 1   
     6     2     5 1   
     7     2    14 1   
     8     3     4 1   
     9     3    11 1   
    10     5     6 1   
    11     5    15 1   
    12     5    16 1   
    13     6     7 2   
    14     6     8 1   
    15     8     9 1   
    16     9    10 2   
    17     9    17 1   
@<TRIPOS>SUBSTRUCTURE
     1 A0A         1 TEMP              0 ****  ****    0 ROOT
