@<TRIPOS>MOLECULE
molecule
   35    38     1     0     0
SMALL
bcc


@<TRIPOS>ATOM
      1 O3           0.0000     0.0000     0.0000 o          1 A0B      -0.790800
      2 C4           4.1860    -2.5500    -0.0180 ca         1 A0B       0.023000
      3 C5           5.0150    -3.1700     0.8660 ca         1 A0B      -0.111900
      4 O4           1.9550     0.0000     1.0520 o          1 A0B      -0.790800
      5 C6           4.6460    -4.3900     1.4490 ca         1 A0B       0.564700
      6 C7           3.4270    -4.9810     1.1340 ca         1 A0B      -0.246200
      7 C8           2.5700    -4.3630     0.2370 ca         1 A0B       0.467000
      8 C9           0.5290    -4.3620    -0.9400 cc         1 A0B       0.401700
      9 C10         -0.6770    -4.9800    -1.2320 cd         1 A0B      -0.214500
     10 C11         -1.5600    -4.3880    -2.1290 c          1 A0B       0.562500
     11 C12         -1.2390    -3.1690    -2.7410 cd         1 A0B      -0.145500
     12 C13          2.4400    -1.2190    -1.8950 ca         1 A0B      -0.042000
     13 C14          2.0850     0.0010    -1.2790 ca         1 A0B      -0.018600
     14 C15          2.4350     1.2050    -1.8840 ca         1 A0B       0.046400
     15 C           -0.0600    -2.5490    -2.4650 cc         1 A0B       0.034800
     16 O            5.4770    -4.9930     2.3210 o          1 A0B      -0.734700
     17 C1           0.8440    -3.1340    -1.5610 cc         1 A0B      -0.295600
     18 C16          3.1270     1.2010    -3.0850 ca         1 A0B       0.037400
     19 C17          3.4760     0.0050    -3.6910 ca         1 A0B       0.005400
     20 C18          3.1420    -1.2030    -3.1010 ca         1 A0B       0.046400
     21 C19          1.3470     0.0000     0.0000 c          1 A0B       0.870200
     22 C2           2.0770    -2.5000    -1.2650 cd         1 A0B       0.200000
     23 C3           2.9510    -3.1340    -0.3470 ca         1 A0B      -0.283800
     24 O1           1.3870    -4.9340    -0.0710 os         1 A0B      -0.347800
     25 Br1         -1.1200    -6.6260    -0.4130 br         1 A0B      -0.096700
     26 Br2          2.9400    -6.6280     1.9270 br         1 A0B      -0.111100
     27 Br3          6.6770    -2.3810     1.3070 br         1 A0B      -0.130600
     28 Cl           3.5850    -2.6960    -3.8680 cl         1 A0B      -0.087400
     29 Cl1          4.3420     0.0190    -5.1950 cl         1 A0B      -0.108400
     30 Cl2          3.5530     2.7050    -3.8400 cl         1 A0B      -0.110400
     31 Cl3          2.0040     2.7110    -1.1370 cl         1 A0B      -0.071400
     32 H1           4.4770    -1.6080    -0.4650 ha         1 A0B       0.145000
     33 H            0.1830    -1.6070    -2.9410 ha         1 A0B       0.145000
     34 O2          -2.7310    -4.9910    -2.4110 o          1 A0B      -0.694100
     35 Br          -2.4530    -2.3800    -3.9580 br         1 A0B      -0.116200
@<TRIPOS>BOND
     1    30    18 1
     2    29    19 1
     3    18    19 ar
     4    18    14 ar
     5    19    20 ar
     6    31    14 1
     7    14    13 ar
     8    20    28 1
     9    20    12 ar
    10    35    11 1
    11    13    12 ar
    12    13    21 1
    13    12    22 1
    14     4    21 1
    15    15    11 2
    16    15    17 1
    17    11    10 1
    18    21     1 1
    19    22    17 2
    20    22    23 1
    21    17     8 1
    22    10    34 2
    23    10     9 1
    24     2    23 ar
    25     2     3 ar
    26    23     7 ar
    27     8     9 2
    28     8    24 1
    29    27     3 1
    30     9    25 1
    31     3     5 ar
    32     7    24 1
    33     7     6 ar
    34     5     6 ar
    35     5    16 1
    36     6    26 1
    37     2    32 1
    38    15    33 1
@<TRIPOS>SUBSTRUCTURE
     1 A0B         1 TEMP              0 ****  ****    0 ROOT
