@<TRIPOS>MOLECULE
A0C
   31    32     1     0     0
SMALL
bcc


@<TRIPOS>ATOM
      1 O1          0.1130    0.7170    0.2370 o         1 A0C     -0.377100
      2 C9          1.2500    0.3420    0.0120 c         1 A0C      0.501600
      3 N3          2.1280    0.1540    1.2360 n4        1 A0C     -0.756400
      4 C8          1.8910    0.0530   -1.2580 cc        1 A0C      0.190800
      5 C7          1.2670    0.2240   -2.5620 cc        1 A0C     -0.271600
      6 N2          3.1630   -0.4150   -1.4250 nd        1 A0C     -0.307300
      7 O           3.3950   -0.5500   -2.6880 os        1 A0C     -0.041100
      8 C6          2.2530   -0.1650   -3.4570 cd        1 A0C      0.322000
      9 C5          2.3830   -0.2710   -4.9050 c3        1 A0C     -0.103600
     10 S           2.2090    1.3760   -5.5480 ss        1 A0C     -0.195400
     11 C4          2.3180    1.1690   -7.2670 ca        1 A0C      0.729300
     12 N           2.2050    2.3290   -7.9800 nb        1 A0C     -0.712500
     13 C3          2.2880    2.2110   -9.3300 ca        1 A0C      0.472600
     14 C10         2.1760    3.4370  -10.1760 c3        1 A0C     -0.160900
     15 C2          2.4810    0.9540   -9.9480 ca        1 A0C     -0.363600
     16 N1          2.5030   -0.0850   -7.7710 nb        1 A0C     -0.712500
     17 C1          2.5840   -0.1860   -9.1230 ca        1 A0C      0.472600
     18 C           2.7890   -1.5280   -9.7450 c3        1 A0C     -0.160900
     19 H31N        2.9510    0.7630    1.1710 hn        1 A0C      0.477133
     20 H32N        1.6000    0.3860    2.0870 hn        1 A0C      0.477133
     21 H7          0.2570    0.5820   -2.7600 ha        1 A0C      0.222000
     22 H51C        3.3740   -0.7160   -5.1900 h1        1 A0C      0.128700
     23 H52C        1.5870   -0.9510   -5.3130 h1        1 A0C      0.128700
     24 H101        1.2070    3.9610   -9.9790 hc        1 A0C      0.066367
     25 H102        2.2260    3.1650  -11.2580 hc        1 A0C      0.066367
     26 H103        3.0100    4.1460   -9.9420 hc        1 A0C      0.066367
     27 H2          2.5470    0.8690  -11.0400 ha        1 A0C      0.165000
     28 HC1         2.8070   -1.4390  -10.8580 hc        1 A0C      0.066367
     29 HC2         3.7590   -1.9700   -9.4050 hc        1 A0C      0.066367
     30 HC3         1.9640   -2.2250   -9.4540 hc        1 A0C      0.066367
     31 H33         2.4460   -0.8200    1.2900 hn        1 A0C      0.477133
@<TRIPOS>BOND
     1    1    2 2   
     2    2    3 1   
     3    2    4 1   
     4    3   19 1   
     5    3   20 1   
     6    3   31 1   
     7    4    5 1   
     8    4    6 2   
     9    5    8 2   
    10    5   21 1   
    11    6    7 1   
    12    7    8 1   
    13    8    9 1   
    14    9   10 1   
    15    9   22 1   
    16    9   23 1   
    17   10   11 1   
    18   11   12 ar  
    19   11   16 ar  
    20   12   13 ar  
    21   13   14 1   
    22   13   15 ar  
    23   14   24 1   
    24   14   25 1   
    25   14   26 1   
    26   15   17 ar  
    27   15   27 1   
    28   16   17 ar  
    29   17   18 1   
    30   18   28 1   
    31   18   29 1   
    32   18   30 1   
@<TRIPOS>SUBSTRUCTURE
     1 A0C         1 TEMP              0 ****  ****    0 ROOT
