@<TRIPOS>MOLECULE
A0D
   49    52     1     0     0
SMALL
bcc


@<TRIPOS>ATOM
      1 N1         -0.5720    0.8550    0.9470 n4        1 A0D     -0.663800
      2 C2         -1.5680    1.1030   -0.1540 c         1 A0D      0.540100
      3 C3         -2.5090   -0.0310   -0.5730 c3        1 A0D      0.119500
      4 O4         -1.5490    2.2230   -0.6430 o         1 A0D     -0.427100
      5 N5         -2.6710   -1.0380    0.4720 n3        1 A0D     -0.769600
      6 C6         -2.2520   -2.3390   -0.0600 c3        1 A0D      0.153800
      7 C7         -1.7340   -2.1630   -1.4950 c3        1 A0D     -0.103400
      8 C8         -1.9360   -0.6970   -1.8480 c3        1 A0D     -0.091400
      9 C9          1.5110    0.8540   -0.4960 c3        1 A0D     -0.077200
     10 C10         0.6140    0.0550    0.4730 c3        1 A0D      0.129500
     11 C11         2.2130    2.0010    0.2210 c3        1 A0D     -0.078400
     12 C12         3.0560    1.4580    1.3680 c3        1 A0D     -0.069700
     13 C13         4.1030    0.4960    0.8130 c3        1 A0D     -0.075400
     14 C14         3.4060   -0.6600    0.1010 c3        1 A0D     -0.069700
     15 C15         2.5140   -1.4010    1.0910 c3        1 A0D     -0.078400
     16 C16         1.4660   -0.4450    1.6600 c3        1 A0D     -0.077200
     17 C17         2.1630    0.7170    2.3570 c3        1 A0D     -0.078400
     18 C18         2.5570   -0.1170   -1.0430 c3        1 A0D     -0.078400
     19 C19        -3.9880   -1.0290    1.1010 c3        1 A0D      0.161800
     20 C20        -4.0690   -1.9010    2.3420 c3        1 A0D     -0.100100
     21 HN1        -1.0280    0.3370    1.7090 hn        1 A0D      0.462800
     22 H3         -3.4820    0.4960   -0.8170 h1        1 A0D      0.115700
     23 H6         -1.4380   -2.7250    0.6130 h1        1 A0D      0.066700
     24 H6A        -3.0950   -3.0840   -0.0400 h1        1 A0D      0.066700
     25 H7         -2.2990   -2.8240   -2.1990 hc        1 A0D      0.072700
     26 H7A        -0.6550   -2.4490   -1.5620 hc        1 A0D      0.072700
     27 H8         -2.6710   -0.5780   -2.6850 hc        1 A0D      0.077200
     28 H8A        -0.9790   -0.2150   -2.1680 hc        1 A0D      0.077200
     29 H9          0.8910    1.2560   -1.3430 hc        1 A0D      0.065200
     30 H10         0.1810   -0.8420   -0.0700 hx        1 A0D      0.103700
     31 H11         2.8760    2.5340   -0.5120 hc        1 A0D      0.059700
     32 H11A        1.4750    2.7530    0.5990 hc        1 A0D      0.059700
     33 H12         3.5680    2.3090    1.8920 hc        1 A0D      0.081200
     34 H13         4.7380    0.1020    1.6470 hc        1 A0D      0.063200
     35 H13A        4.7720    1.0370    0.0960 hc        1 A0D      0.063200
     36 H14         4.1760   -1.3670   -0.3090 hc        1 A0D      0.081200
     37 H15         3.1330   -1.8060    1.9330 hc        1 A0D      0.059700
     38 H15A        2.0120   -2.2650    0.5860 hc        1 A0D      0.059700
     39 H16         0.8200   -1.0000    2.3930 hc        1 A0D      0.065200
     40 H17         2.7880    0.3160    3.1990 hc        1 A0D      0.059700
     41 H17A        1.4170    1.4210    2.8070 hc        1 A0D      0.059700
     42 H18         3.2080    0.4240   -1.7780 hc        1 A0D      0.059700
     43 H18A        2.0550   -0.9600   -1.5840 hc        1 A0D      0.059700
     44 H19        -4.2150    0.0370    1.3940 h1        1 A0D      0.047700
     45 H19A       -4.7890   -1.3580    0.3750 h1        1 A0D      0.047700
     46 H20        -5.0980   -1.8110    2.7690 hc        1 A0D      0.053033
     47 H20A       -3.8780   -2.9740    2.1000 hc        1 A0D      0.053033
     48 H20B       -3.3340   -1.5770    3.1170 hc        1 A0D      0.053033
     49 H121       -0.2330    1.7550    1.3120 hn        1 A0D      0.462800
@<TRIPOS>BOND
     1    1    2 1
     2    1   10 1
     3    1   21 1
     4    1   49 1
     5    2    3 1
     6    2    4 2
     7    3    5 1
     8    3    8 1
     9    3   22 1
    10    5    6 1
    11    5   19 1
    12    6    7 1
    13    6   23 1
    14    6   24 1
    15    7    8 1
    16    7   25 1
    17    7   26 1
    18    8   27 1
    19    8   28 1
    20    9   10 1
    21    9   11 1
    22    9   18 1
    23    9   29 1
    24   10   16 1
    25   10   30 1
    26   11   12 1
    27   11   31 1
    28   11   32 1
    29   12   13 1
    30   12   17 1
    31   12   33 1
    32   13   14 1
    33   13   34 1
    34   13   35 1
    35   14   15 1
    36   14   18 1
    37   14   36 1
    38   15   16 1
    39   15   37 1
    40   15   38 1
    41   16   17 1
    42   16   39 1
    43   17   40 1
    44   17   41 1
    45   18   42 1
    46   18   43 1
    47   19   20 1
    48   19   44 1
    49   19   45 1
    50   20   46 1
    51   20   47 1
    52   20   48 1
@<TRIPOS>SUBSTRUCTURE
     1 A0D         1 TEMP              0 ****  ****    0 ROOT
