@<TRIPOS>MOLECULE
A0H
   60    64     1     0     0
SMALL
bcc


@<TRIPOS>ATOM
      1 Cl           0.0000     0.0000     0.0000 cl         1 A0H       0.054600
      2 C02          1.7360     0.0000     0.0000 cc         1 A0H      -0.386700
      3 C03          2.5410     0.0000     1.0900 cd         1 A0H       0.054600
      4 N04          3.8100    -0.0010     0.6810 nd         1 A0H      -0.226600
      5 C05          3.8400    -0.0030    -0.6410 cc         1 A0H      -0.413600
      6 N06          2.5450    -0.0080    -1.0950 na         1 A0H       0.699700
      7 C07          2.3070    -0.0140    -2.4440 cc         1 A0H      -0.496600
      8 C08          3.3500    -0.0200    -3.3130 cd         1 A0H       0.522800
      9 C09          3.0850    -0.0280    -4.7720 ca         1 A0H      -0.159500
     10 C10          4.1440    -0.0330    -5.6780 ca         1 A0H      -0.052000
     11 C11          3.8910    -0.0410    -7.0340 ca         1 A0H      -0.128300
     12 C12          5.0360    -0.0460    -8.0130 c3         1 A0H       0.290100
     13 N13          5.4060    -1.4300    -8.3220 n7         1 A0H      -0.597100
     14 S14          6.3670    -1.7570    -9.6310 s6         1 A0H       0.954900
     15 O15          5.7370    -1.0760   -10.7070 o          1 A0H      -0.583300
     16 C16          7.9570    -0.9800    -9.2300 c3         1 A0H       0.006700
     17 O17          6.4900    -3.1720    -9.6310 o          1 A0H      -0.583300
     18 C18          2.5870    -0.0430    -7.4960 ca         1 A0H      -0.063000
     19 C19          1.5310    -0.0370    -6.6030 ca         1 A0H      -0.107000
     20 C20          1.7730    -0.0350    -5.2440 ca         1 A0H      -0.083000
     21 N21          4.6220    -0.0180    -2.8730 nd         1 A0H      -0.701000
     22 C22          4.8970    -0.0040    -1.5860 cc         1 A0H       0.575200
     23 N23          6.2150    -0.0050    -1.1560 nu         1 A0H      -0.257300
     24 C24          7.2550     0.1000    -2.0870 ca         1 A0H      -0.038400
     25 C25          8.4270    -0.6220    -1.9040 ca         1 A0H      -0.083000
     26 C26          9.4530    -0.5190    -2.8220 ca         1 A0H      -0.131000
     27 C27          9.3130     0.3070    -3.9300 ca         1 A0H       0.010600
     28 N28         10.3520     0.4110    -4.8610 nh         1 A0H      -0.359000
     29 C29          9.9940     1.3330    -5.9490 c3         1 A0H       0.094300
     30 C30         11.1320     1.3720    -6.9730 c3         1 A0H       0.213400
     31 O31         12.3450     1.7520    -6.3160 os         1 A0H      -0.408600
     32 C32         12.7230     0.8750    -5.2530 c3         1 A0H       0.213400
     33 C33         11.6010     0.8320    -4.2110 c3         1 A0H       0.094300
     34 C34          8.1400     1.0280    -4.1140 ca         1 A0H      -0.131000
     35 C35          7.1120     0.9220    -3.1980 ca         1 A0H      -0.083000
     36 H03          2.2090     0.0010     2.1210 h4         1 A0H       0.149000
     37 H07          1.2930     0.0660    -2.8160 h4         1 A0H       0.164000
     38 H10          5.1640    -0.0880    -5.3170 ha         1 A0H       0.130000
     39 H12          4.7360     0.4590    -8.9220 h1         1 A0H       0.014200
     40 H12A         5.8860     0.4660    -7.5780 h1         1 A0H       0.014200
     41 HN13         5.0940    -2.1760    -7.7320 hn         1 A0H       0.359800
     42 H16          8.6750    -1.2020   -10.0110 h1         1 A0H       0.061700
     43 H16A         7.8260     0.0930    -9.1550 h1         1 A0H       0.061700
     44 H16B         8.3200    -1.3660    -8.2860 h1         1 A0H       0.061700
     45 H18          2.3920    -0.0470    -8.5610 ha         1 A0H       0.114000
     46 H19          0.5120    -0.0410    -6.9700 ha         1 A0H       0.108000
     47 H20          0.9450    -0.0300    -4.5450 ha         1 A0H       0.109000
     48 HN23         6.4230    -0.0590    -0.1790 hn         1 A0H       0.304800
     49 H25          8.5370    -1.2660    -1.0400 ha         1 A0H       0.120000
     50 H26         10.3670    -1.0820    -2.6780 ha         1 A0H       0.118000
     51 H29          9.0870     0.9880    -6.4300 h1         1 A0H       0.026200
     52 H29A         9.8400     2.3260    -5.5430 h1         1 A0H       0.026200
     53 H30         11.2530     0.3900    -7.4140 h1         1 A0H       0.013950
     54 H30A        10.8980     2.0940    -7.7450 h1         1 A0H       0.013950
     55 H32         12.8880    -0.1200    -5.6470 h1         1 A0H       0.013950
     56 H32A        13.6310     1.2410    -4.7890 h1         1 A0H       0.013950
     57 H33         11.4700     1.8170    -3.7810 h1         1 A0H       0.026200
     58 H33A        11.8590     0.1230    -3.4330 h1         1 A0H       0.026200
     59 H34          8.0300     1.6710    -4.9790 ha         1 A0H       0.118000
     60 H35          6.1980     1.4850    -3.3420 ha         1 A0H       0.120000
@<TRIPOS>BOND
     1     1     2 1   
     2     2     3 2   
     3     2     6 1   
     4     3     4 1   
     5     3    36 1   
     6     4     5 2   
     7     5     6 1   
     8     5    22 1   
     9     6     7 1   
    10     7     8 2   
    11     7    37 1   
    12     8     9 1   
    13     8    21 1   
    14     9    10 ar  
    15     9    20 ar  
    16    10    11 ar  
    17    10    38 1   
    18    11    12 1   
    19    11    18 ar  
    20    12    13 1   
    21    12    39 1   
    22    12    40 1   
    23    13    14 1   
    24    13    41 1   
    25    14    15 2   
    26    14    16 1   
    27    14    17 2   
    28    16    42 1   
    29    16    43 1   
    30    16    44 1   
    31    18    19 ar  
    32    18    45 1   
    33    19    20 ar  
    34    19    46 1   
    35    20    47 1   
    36    21    22 2   
    37    22    23 1   
    38    23    24 1   
    39    23    48 1   
    40    24    25 ar  
    41    24    35 ar  
    42    25    26 ar  
    43    25    49 1   
    44    26    27 ar  
    45    26    50 1   
    46    27    28 1   
    47    27    34 ar  
    48    28    29 1   
    49    28    33 1   
    50    29    30 1   
    51    29    51 1   
    52    29    52 1   
    53    30    31 1   
    54    30    53 1   
    55    30    54 1   
    56    31    32 1   
    57    32    33 1   
    58    32    55 1   
    59    32    56 1   
    60    33    57 1   
    61    33    58 1   
    62    34    35 ar  
    63    34    59 1   
    64    35    60 1   
@<TRIPOS>SUBSTRUCTURE
     1 A0H         1 TEMP              0 ****  ****    0 ROOT
