@<TRIPOS>MOLECULE
A0J
   43    46     1     0     0
SMALL
bcc


@<TRIPOS>ATOM
      1 C1           1.5300     0.0000     0.0000 c3         1 A0J       0.014900
      2 C2           0.0000     0.0000     0.0000 c3         1 A0J      -0.083700
      3 C3          -0.5290     0.0000     1.4150 ca         1 A0J      -0.134300
      4 C4          -0.4020    -0.8860     2.4590 ca         1 A0J      -0.047000
      5 C5          -1.0190    -0.6120     3.6800 ca         1 A0J       0.006000
      6 C6          -1.7580     0.5580     3.8290 ca         1 A0J      -0.082000
      7 C7          -1.8810     1.4410     2.7800 ca         1 A0J      -0.111000
      8 C8          -1.2660     1.1710     1.5570 ca         1 A0J      -0.109400
      9 N9          -1.2460     1.8990     0.3670 ns         1 A0J      -0.010100
     10 C10         -0.5300     1.2880    -0.5920 c          1 A0J       0.612500
     11 O11         -0.3450     1.6930    -1.7210 o          1 A0J      -0.638500
     12 C12         -0.8870    -1.5630     4.8130 cc         1 A0J      -0.264300
     13 C13         -0.1730    -2.7770     4.8020 cc         1 A0J       0.404200
     14 N14         -0.2910    -3.3280     5.9800 nd         1 A0J      -0.646800
     15 N15         -1.0780    -2.4950     6.7840 na         1 A0J       0.493400
     16 C16         -1.4300    -1.4160     6.0550 cd         1 A0J      -0.243300
     17 C17         -1.4510    -2.7480     8.1780 c3         1 A0J       0.022600
     18 C18         -0.5340    -1.2080    -0.7730 c3         1 A0J       0.059900
     19 C19         -0.0300    -1.1600    -2.1920 ca         1 A0J      -0.098300
     20 C20          1.1660    -1.7700    -2.5220 ca         1 A0J      -0.081500
     21 C21          1.6290    -1.7260    -3.8240 ca         1 A0J      -0.101000
     22 C22          0.8950    -1.0720    -4.7960 ca         1 A0J      -0.101000
     23 C23         -0.3000    -0.4630    -4.4670 ca         1 A0J      -0.101000
     24 C24         -0.7660    -0.5110    -3.1660 ca         1 A0J      -0.081500
     25 H11C         1.8920     0.3440    -0.9620 hc         1 A0J       0.016700
     26 H12C         1.8920    -1.0050     0.1830 hc         1 A0J       0.016700
     27 H13C         1.8920     0.6610     0.7780 hc         1 A0J       0.016700
     28 H181        -1.6170    -1.1860    -0.7740 hc         1 A0J       0.023200
     29 H182        -0.1920    -2.1200    -0.2990 hc         1 A0J       0.023200
     30 H4           0.1750    -1.7940     2.3330 ha         1 A0J       0.111000
     31 H6          -2.2390     0.7750     4.7760 ha         1 A0J       0.105000
     32 H7          -2.4580     2.3500     2.9040 ha         1 A0J       0.104000
     33 H9          -1.7110     2.7770     0.2420 hn         1 A0J       0.173500
     34 H13          0.3780    -3.1830     3.9620 h4         1 A0J       0.007100
     35 H16         -2.0400    -0.5870     6.3930 h4         1 A0J       0.149000
     36 H171        -1.0350    -3.6970     8.4960 h1         1 A0J       0.022033
     37 H172        -2.5300    -2.7810     8.2630 h1         1 A0J       0.022033
     38 H173        -1.0630    -1.9550     8.8060 h1         1 A0J       0.022033
     39 H20          1.7410    -2.2820    -1.7600 ha         1 A0J       0.105000
     40 H24         -1.7030    -0.0340    -2.9080 ha         1 A0J       0.105000
     41 H21          2.5660    -2.2040    -4.0820 ha         1 A0J       0.100500
     42 H22          1.2580    -1.0360    -5.8160 ha         1 A0J       0.099000
     43 H23         -0.8760     0.0470    -5.2290 ha         1 A0J       0.100500
@<TRIPOS>BOND
     1     1     2 1   
     2     1    25 1   
     3     1    26 1   
     4     1    27 1   
     5     2     3 1   
     6     2    10 1   
     7     2    18 1   
     8     3     4 ar  
     9     3     8 ar  
    10     4     5 ar  
    11     4    30 1   
    12     5     6 ar  
    13     5    12 1   
    14     6     7 ar  
    15     6    31 1   
    16     7     8 ar  
    17     7    32 1   
    18     8     9 1   
    19     9    10 1   
    20     9    33 1   
    21    10    11 2   
    22    12    13 1   
    23    12    16 2   
    24    13    14 2   
    25    13    34 1   
    26    14    15 1   
    27    15    16 1   
    28    15    17 1   
    29    16    35 1   
    30    17    36 1   
    31    17    37 1   
    32    17    38 1   
    33    18    19 1   
    34    18    28 1   
    35    18    29 1   
    36    19    20 ar  
    37    19    24 ar  
    38    20    21 ar  
    39    20    39 1   
    40    21    22 ar  
    41    21    41 1   
    42    22    23 ar  
    43    22    42 1   
    44    23    24 ar  
    45    23    43 1   
    46    24    40 1   
@<TRIPOS>SUBSTRUCTURE
     1 A0J         1 TEMP              0 ****  ****    0 ROOT
