@<TRIPOS>MOLECULE
molecule
   35    35     1     0     0
SMALL
bcc


@<TRIPOS>ATOM
      1 C10          0.0000     0.0000     0.0000 c3         1 A0K       0.127400
      2 C01          5.5170    -1.7180     1.5590 c3         1 A0K       0.150400
      3 C02          4.4070    -1.9800     0.5380 c3         1 A0K       0.132100
      4 C03          4.7450    -3.2330    -0.2740 c3         1 A0K       0.111100
      5 C04          3.6610    -3.4540    -1.3330 c3         1 A0K       0.121100
      6 C05          3.5580    -2.2030    -2.2110 c3         1 A0K       0.124100
      7 C06          3.2650    -0.9900    -1.3240 c3         1 A0K       0.317900
      8 C09          1.5300     0.0000     0.0000 c3         1 A0K       0.149100
      9 C12          2.0390     0.0000     1.4420 c3         1 A0K       0.127400
     10 O07          4.2960    -0.8600    -0.3430 os         1 A0K      -0.432600
     11 O08          2.0060    -1.1680    -0.6730 os         1 A0K      -0.399600
     12 O11         -0.4770    -1.1020     0.7720 oh         1 A0K      -0.571800
     13 O13          1.4700    -1.1040     2.1490 oh         1 A0K      -0.571800
     14 O15          2.4990    -2.3700    -3.1570 oh         1 A0K      -0.583800
     15 O16          4.0050    -4.5800    -2.1430 oh         1 A0K      -0.612800
     16 O17          4.8000    -4.3650     0.5960 oh         1 A0K      -0.596800
     17 O18          5.1470    -0.6180     2.3920 oh         1 A0K      -0.607800
     18 H1          -0.3610     0.9260     0.4310 h1         1 A0K       0.031950
     19 H2          -0.3610    -0.0890    -1.0180 h1         1 A0K       0.031950
     20 H3           6.4380    -1.4840     1.0380 h1         1 A0K       0.034200
     21 H4           5.6610    -2.6010     2.1690 h1         1 A0K       0.034200
     22 H6           5.7030    -3.0980    -0.7620 h1         1 A0K       0.044700
     23 H7           2.7100    -3.6310    -0.8440 h1         1 A0K       0.088700
     24 H8           4.4950    -2.0510    -2.7320 h1         1 A0K       0.056700
     25 H9           3.2370    -0.0960    -1.9360 h2         1 A0K       0.073700
     26 H10          1.8910     0.8840    -0.5110 h1         1 A0K       0.044700
     27 H11          1.7530     0.9260     1.9270 h1         1 A0K       0.031950
     28 H12          3.1190    -0.0890     1.4440 h1         1 A0K       0.031950
     29 H13         -1.4190    -1.1300     0.7320 ho         1 A0K       0.389500
     30 H14          1.4230    -0.8980     3.0680 ho         1 A0K       0.389500
     31 H15          2.8380    -2.2630    -4.0300 ho         1 A0K       0.403000
     32 H16          3.3350    -5.2380    -2.0680 ho         1 A0K       0.416000
     33 H17          5.5680    -4.8760     0.3990 ho         1 A0K       0.408000
     34 H18          5.8370    -0.4470     3.0110 ho         1 A0K       0.402000
     35 H5           3.4640    -2.1280     1.0520 h1         1 A0K       0.104700
@<TRIPOS>BOND
     1    13     9 1
     2     1    12 1
     3     1     8 1
     4     9     8 1
     5     8    11 1
     6    11     7 1
     7     2     3 1
     8     2    17 1
     9     3    10 1
    10     3     4 1
    11    10     7 1
    12     7     6 1
    13    16     4 1
    14     4     5 1
    15     5     6 1
    16     5    15 1
    17     6    14 1
    18     1    18 1
    19     1    19 1
    20     2    20 1
    21     2    21 1
    22     3    35 1
    23     4    22 1
    24     5    23 1
    25     6    24 1
    26     7    25 1
    27     8    26 1
    28     9    27 1
    29     9    28 1
    30    12    29 1
    31    13    30 1
    32    14    31 1
    33    15    32 1
    34    16    33 1
    35    17    34 1
@<TRIPOS>SUBSTRUCTURE
     1 A0K         1 TEMP              0 ****  ****    0 ROOT
