@<TRIPOS>MOLECULE
molecule
   44    46     1     0     0
SMALL
bcc


@<TRIPOS>ATOM
      1 N1           0.0000     0.0000     0.0000 nb         1 A0P      -0.814000
      2 C2           1.3210     0.0000     0.0000 ca         1 A0P       0.578900
      3 N3           2.0280     0.0000     1.1100 nb         1 A0P      -0.833000
      4 C4           1.4260    -0.0010     2.2960 ca         1 A0P       0.461800
      5 C5           0.0220    -0.0010     2.3490 ca         1 A0P      -0.206200
      6 C6          -0.6880    -0.0010     1.1370 ca         1 A0P       0.648200
      7 N6          -2.0720    -0.0010     1.1270 nv         1 A0P      -1.028500
      8 N7          -0.3280    -0.0020     3.6590 nc         1 A0P      -0.606100
      9 C8           0.7460    -0.0020     4.3940 cd         1 A0P       0.380700
     10 N9           1.8540    -0.0010     3.5990 na         1 A0P      -0.278000
     11 PA           3.0010    -0.5640     9.8830 p5         1 A0P       1.435800
     12 PB           2.1060    -2.8150    11.5910 p5         1 A0P       1.361700
     13 PG           0.8310    -4.9930    12.7410 p5         1 A0P       1.196800
     14 C1'          3.2470    -0.0020     4.0550 c3         1 A0P       0.245800
     15 O1A          4.4300    -0.9010    10.0690 o          1 A0P      -0.852500
     16 O1B          3.5130    -3.5950    11.6410 o          1 A0P      -0.808500
     17 O1G          0.6250    -4.1680    14.1070 o          1 A0P      -0.802500
     18 C2'          3.8360     1.4240     3.9830 c3         1 A0P       0.070100
     19 O2'          5.2270     1.3760     3.6540 oh         1 A0P      -0.597800
     20 O2A          2.6300     0.7170    10.7850 o          1 A0P      -0.852500
     21 O2B          1.9270    -2.0370    12.8370 o          1 A0P      -0.808500
     22 O2G         -0.3890    -6.0260    12.5500 o          1 A0P      -0.802500
     23 C3'          3.6340     1.9860     5.4080 c3         1 A0P       0.094100
     24 O3'          2.7910     3.1390     5.3750 oh         1 A0P      -0.595800
     25 O3A          2.0920    -1.8160    10.3280 os         1 A0P      -0.723800
     26 N3B          0.8520    -3.9280    11.4390 n7         1 A0P      -0.915400
     27 O3G          2.1060    -5.7430    12.8040 o          1 A0P      -0.802500
     28 C4'          2.9460     0.8340     6.1710 c3         1 A0P       0.108100
     29 O4'          3.3190    -0.3620     5.4510 os         1 A0P      -0.342600
     30 C5'          3.4570     0.7690     7.6120 c3         1 A0P       0.241400
     31 O5'          2.7260    -0.2250     8.3330 os         1 A0P      -0.591200
     32 H2           1.8420     0.0010    -0.9500 h5         1 A0P       0.009100
     33 HN6         -2.5670    -0.4780     0.4000 hn         1 A0P       0.414800
     34 HN6A        -2.5770     0.5160     1.8200 hn         1 A0P       0.414800
     35 H8           0.7580    -0.0050     5.4770 h5         1 A0P       0.107800
     36 H1'          3.8430    -0.6840     3.4610 h2         1 A0P       0.101700
     37 H2'          3.2910     2.0200     3.2620 h1         1 A0P       0.061700
     38 HO2'         5.3800     1.8650     2.8630 ho         1 A0P       0.385000
     39 H3'          4.5900     2.2210     5.8600 h1         1 A0P       0.061700
     40 HO3'         3.3080     3.9120     5.5320 ho         1 A0P       0.384000
     41 HN3B        -0.0050    -3.6590    10.9980 hn         1 A0P       0.361800
     42 H4'          1.8700     0.9620     6.1530 h1         1 A0P       0.076700
     43 H5'          3.3210     1.7330     8.0870 h1         1 A0P       0.030700
     44 H5'A         4.5100     0.5130     7.6100 h1         1 A0P       0.030700
@<TRIPOS>BOND
     1     2     1 ar
     2     6     1 ar
     3     3     2 ar
     4     2    32 1
     5     4     3 ar
     6    10     4 1
     7     4     5 ar
     8     8     5 1
     9     5     6 ar
    10     6     7 1
    11     7    33 1
    12     7    34 1
    13     9     8 2
    14    10     9 1
    15     9    35 1
    16    14    10 1
    17    25    11 1
    18    31    11 1
    19    11    15 1
    20    11    20 1
    21    21    12 1
    22    12    26 1
    23    12    16 1
    24    12    25 1
    25    27    13 1
    26    13    22 1
    27    13    17 1
    28    13    26 1
    29    29    14 1
    30    14    18 1
    31    14    36 1
    32    23    18 1
    33    19    18 1
    34    18    37 1
    35    19    38 1
    36    28    23 1
    37    23    24 1
    38    23    39 1
    39    24    40 1
    40    26    41 1
    41    30    28 1
    42    28    29 1
    43    28    42 1
    44    30    31 1
    45    30    43 1
    46    30    44 1
@<TRIPOS>SUBSTRUCTURE
     1 A0P         1 TEMP              0 ****  ****    0 ROOT
