@<TRIPOS>MOLECULE
A0P
   45    46     1     0     0
SMALL
bcc


@<TRIPOS>ATOM
      1 N1          0.5770    0.3210   -0.8630 nb        1 A0P     -0.802000
      2 C2          1.8810    0.4170   -0.4740 ca        1 A0P      0.642900
      3 N3          2.4200    0.5250    0.7580 nb        1 A0P     -0.704000
      4 C4          1.4790    0.5330    1.7530 ca        1 A0P      0.443800
      5 C5          0.0380    0.4520    1.4870 ca        1 A0P     -0.204200
      6 C6         -0.3730    0.3570    0.1230 ca        1 A0P      0.693200
      7 N6         -1.7340    0.3670   -0.1950 nh        1 A0P     -0.927500
      8 N7         -0.6700    0.4750    2.6960 nc        1 A0P     -0.595100
      9 C8          0.2740    0.5650    3.6500 cd        1 A0P      0.451700
     10 N9          1.5940    0.6270    3.1440 na        1 A0P     -0.255000
     11 PA          3.4320   -0.4070    9.2990 p5        1 A0P      1.617800
     12 PB          3.6310   -2.1630   12.0680 p5        1 A0P      1.558700
     13 PG          0.7200   -4.3740   13.8230 p4        1 A0P      1.529300
     14 C1'         2.8200    0.6230    3.9350 c3        1 A0P      0.207800
     15 O1A         2.2300    0.4570    9.1120 o         1 A0P     -0.916500
     16 O1B         4.6740   -3.1680   11.7460 o         1 A0P     -0.876500
     17 O1G         0.5720   -5.2690   12.6560 o         1 A0P     -0.829833
     18 C2'         2.7890    1.7090    5.0670 c3        1 A0P      0.111100
     19 O2'         4.0690    2.2920    5.1520 oh        1 A0P     -0.612800
     20 O2A         4.7240    0.1960    8.8900 o         1 A0P     -0.916500
     21 O2B         3.8870   -1.0860   13.0580 o         1 A0P     -0.876500
     22 O2G        -0.1980   -3.2230   13.9580 o         1 A0P     -0.829833
     23 C3'         2.3890    0.9170    6.3250 c3        1 A0P      0.088100
     24 O3'         1.0440    1.2080    6.6400 oh        1 A0P     -0.667800
     25 O3A         3.4330   -1.2870   10.5990 os        1 A0P     -0.815800
     26 N3B         2.1840   -2.8510   12.2880 n3        1 A0P     -1.097900
     27 O3G         1.4510   -4.8560   15.0130 o         1 A0P     -0.878633
     28 C4'         2.5570   -0.5720    5.9490 c3        1 A0P      0.047100
     29 O4'         3.0010   -0.6330    4.5710 os        1 A0P     -0.421600
     30 C5'         3.6260   -1.2720    6.8240 c3        1 A0P      0.216400
     31 O5'         3.1340   -1.5510    8.0770 os        1 A0P     -0.569200
     32 H2          2.6120    0.3940   -1.3080 h5        1 A0P      0.030100
     33 HN6        -1.9790   -0.0250   -1.0750 hn        1 A0P      0.405300
     34 HN6A       -2.3250    0.0990    0.5600 hn        1 A0P      0.405300
     35 H8          0.1040    0.6030    4.7460 h5        1 A0P      0.129800
     36 H1'         3.6910    0.7570    3.2330 h2        1 A0P      0.104700
     37 H2'         2.0810    2.5490    4.8480 h1        1 A0P      0.083700
     38 HO2'        4.5910    1.7730    5.7840 ho        1 A0P      0.439000
     39 H3'         3.0470    1.1570    7.2210 h1        1 A0P      0.148700
     40 HO3'        0.9610    1.0310    7.6030 ho        1 A0P      0.499000
     41 HN3B        1.4070   -2.2880   12.5390 hn        1 A0P      0.410800
     42 H4'         1.5780   -1.1140    6.0150 h1        1 A0P      0.070700
     43 H5'         3.8890   -2.2430    6.3160 h1        1 A0P      0.026200
     44 H5'A        4.5410   -0.6180    6.8820 h1        1 A0P      0.026200
     45 H3B2        1.9100   -3.6110   11.7100 hn        1 A0P      0.410800
@<TRIPOS>BOND
     1    1    2 ar  
     2    1    6 ar  
     3    2    3 ar  
     4    2   32 1   
     5    3    4 ar  
     6    4    5 ar  
     7    4   10 1   
     8    5    6 ar  
     9    5    8 1   
    10    6    7 1   
    11    7   33 1   
    12    7   34 1   
    13    8    9 2   
    14    9   10 1   
    15    9   35 1   
    16   10   14 1   
    17   11   15 1   
    18   11   20 1   
    19   11   25 1   
    20   11   31 1   
    21   12   16 1   
    22   12   21 1   
    23   12   25 1   
    24   12   26 1   
    25   13   17 1   
    26   13   22 1   
    27   13   27 2   
    28   14   18 1   
    29   14   29 1   
    30   14   36 1   
    31   18   19 1   
    32   18   23 1   
    33   18   37 1   
    34   19   38 1   
    35   23   24 1   
    36   23   28 1   
    37   23   39 1   
    38   24   40 1   
    39   26   41 1   
    40   26   45 1   
    41   28   29 1   
    42   28   30 1   
    43   28   42 1   
    44   30   31 1   
    45   30   43 1   
    46   30   44 1   
@<TRIPOS>SUBSTRUCTURE
     1 A0P         1 TEMP              0 ****  ****    0 ROOT
