@<TRIPOS>MOLECULE
A0Q
   56    59     1     0     0
SMALL
bcc


@<TRIPOS>ATOM
      1 C1           0.0000     0.0000     0.0000 ca         1 A0Q      -0.072000
      2 C2           1.3970     0.0000     0.0000 ca         1 A0Q      -0.183600
      3 C3           2.0910     0.0000     1.2180 ca         1 A0Q       0.195100
      4 C4           1.3880     0.0010     2.4120 ca         1 A0Q      -0.202000
      5 C5           0.0070     0.0020     2.4060 ca         1 A0Q      -0.091000
      6 C6          -0.6890     0.0060     1.2020 ca         1 A0Q      -0.024400
      7 O7           3.4490    -0.0010     1.2270 os         1 A0Q      -0.253900
      8 C8           4.0880    -0.0000     2.5040 c3         1 A0Q       0.252700
      9 C9           5.5840    -0.0010     2.3160 ca         1 A0Q      -0.107300
     10 N10         -2.0880     0.0080     1.2040 nh         1 A0Q      -0.365000
     11 C11          2.1380    -0.0010    -1.2750 c          1 A0Q       0.590700
     12 N12          1.4670    -0.0020    -2.4450 ns         1 A0Q      -0.039100
     13 O13          3.3540    -0.0020    -1.2730 o          1 A0Q      -0.616100
     14 C14          2.1660     0.0950    -3.6520 ca         1 A0Q      -0.205700
     15 C15          3.4170    -0.5000    -3.7950 ca         1 A0Q      -0.074000
     16 C16          4.0690    -0.3760    -5.0100 ca         1 A0Q      -0.202300
     17 C17          3.4640     0.3290    -6.0340 ca         1 A0Q       0.383200
     18 N18          2.2790     0.8820    -5.8660 nb         1 A0Q      -0.568000
     19 C19          1.6200     0.7840    -4.7280 ca         1 A0Q       0.370200
     20 C20          6.2690    -1.1990     2.2260 ca         1 A0Q      -0.071500
     21 C21          7.6390    -1.2000     2.0480 ca         1 A0Q      -0.105500
     22 C22          8.3260    -0.0030     1.9620 ca         1 A0Q      -0.091000
     23 C23          7.6420     1.1950     2.0520 ca         1 A0Q      -0.105500
     24 C24          6.2710     1.1960     2.2300 ca         1 A0Q      -0.071500
     25 C25         -2.6160     1.1500     0.4460 c3         1 A0Q       0.136300
     26 C26         -4.1430     1.0720     0.4060 c3         1 A0Q       0.153800
     27 N27         -4.6670     1.0670     1.7790 n3         1 A0Q      -0.549600
     28 C28         -4.1400    -0.0770     2.5360 c3         1 A0Q       0.153800
     29 C29         -2.6120     0.0030     2.5770 c3         1 A0Q       0.136300
     30 C30         -6.1370     1.0680     1.7820 c3         1 A0Q       0.190100
     31 H1          -0.5430     0.0020    -0.9370 ha         1 A0Q       0.113000
     32 H2           1.9230    -0.0010     3.3540 ha         1 A0Q       0.125000
     33 H3          -0.5360     0.0040     3.3430 ha         1 A0Q       0.122000
     34 H4           3.7940     0.8850     3.0550 h1         1 A0Q       0.002200
     35 H5           3.7930    -0.8840     3.0560 h1         1 A0Q       0.002200
     36 H6           0.4720    -0.1080    -2.4500 hn         1 A0Q       0.173500
     37 H7           3.8680    -1.0470    -2.9760 ha         1 A0Q       0.152000
     38 H8           5.0430    -0.8270    -5.1570 ha         1 A0Q       0.113000
     39 H9           3.9720     0.4310    -6.9860 h4         1 A0Q      -0.020900
     40 H10          0.6480     1.2520    -4.6280 h4         1 A0Q      -0.021900
     41 H11          5.7310    -2.1370     2.2930 ha         1 A0Q       0.105000
     42 H12          8.1760    -2.1390     1.9780 ha         1 A0Q       0.103000
     43 H13          9.4000    -0.0040     1.8230 ha         1 A0Q       0.101000
     44 H14          8.1800     2.1320     1.9840 ha         1 A0Q       0.103000
     45 H15          5.7340     2.1340     2.3000 ha         1 A0Q       0.105000
     46 H16         -2.3150     2.0720     0.9280 h1         1 A0Q       0.022950
     47 H17         -2.2270     1.1220    -0.5650 h1         1 A0Q       0.022950
     48 H18         -4.4440     0.1610    -0.0980 h1         1 A0Q       0.015700
     49 H19         -4.5340     1.9310    -0.1260 h1         1 A0Q       0.015700
     50 H21         -4.5290    -0.0500     3.5470 h1         1 A0Q       0.015700
     51 H22         -4.4400    -0.9980     2.0520 h1         1 A0Q       0.015700
     52 H23         -2.3120     0.9140     3.0810 h1         1 A0Q       0.022950
     53 H24         -2.2210    -0.8560     3.1090 h1         1 A0Q       0.022950
     54 H25         -6.4960     1.0980     2.8030 h1         1 A0Q       0.001367
     55 H26         -6.4980     1.9370     1.2460 h1         1 A0Q       0.001367
     56 H27         -6.4990     0.1690     1.2980 h1         1 A0Q       0.001367
@<TRIPOS>BOND
     1     1     2 ar  
     2     1     6 ar  
     3     1    31 1   
     4     2     3 ar  
     5     2    11 1   
     6     3     4 ar  
     7     3     7 1   
     8     4     5 ar  
     9     4    32 1   
    10     5     6 ar  
    11     5    33 1   
    12     6    10 1   
    13     7     8 1   
    14     8     9 1   
    15     8    34 1   
    16     8    35 1   
    17     9    20 ar  
    18     9    24 ar  
    19    10    25 1   
    20    10    29 1   
    21    11    12 1   
    22    11    13 2   
    23    12    14 1   
    24    12    36 1   
    25    14    15 ar  
    26    14    19 ar  
    27    15    16 ar  
    28    15    37 1   
    29    16    17 ar  
    30    16    38 1   
    31    17    18 ar  
    32    17    39 1   
    33    18    19 ar  
    34    19    40 1   
    35    20    21 ar  
    36    20    41 1   
    37    21    22 ar  
    38    21    42 1   
    39    22    23 ar  
    40    22    43 1   
    41    23    24 ar  
    42    23    44 1   
    43    24    45 1   
    44    25    26 1   
    45    25    46 1   
    46    25    47 1   
    47    26    27 1   
    48    26    48 1   
    49    26    49 1   
    50    27    28 1   
    51    27    30 1   
    52    28    29 1   
    53    28    50 1   
    54    28    51 1   
    55    29    52 1   
    56    29    53 1   
    57    30    54 1   
    58    30    55 1   
    59    30    56 1   
@<TRIPOS>SUBSTRUCTURE
     1 A0Q         1 TEMP              0 ****  ****    0 ROOT
