@<TRIPOS>MOLECULE
molecule
   56    59     1     0     0
SMALL
bcc


@<TRIPOS>ATOM
      1 C1           0.0000     0.0000     0.0000 ca         1 A0Q      -0.092000
      2 C2           1.3970     0.0000     0.0000 ca         1 A0Q      -0.164600
      3 C3           2.0910     0.0000     1.2180 ca         1 A0Q       0.179100
      4 C4           1.3880     0.0010     2.4120 ca         1 A0Q      -0.212000
      5 C5           0.0070     0.0020     2.4060 ca         1 A0Q      -0.114000
      6 C6          -0.6890     0.0060     1.2020 ca         1 A0Q       0.059600
      7 O7           3.4490    -0.0010     1.2270 os         1 A0Q      -0.281900
      8 C8           4.0880    -0.0000     2.5040 c3         1 A0Q       0.181700
      9 C9           5.5840    -0.0010     2.3160 ca         1 A0Q      -0.091300
     10 N10         -2.0880     0.0080     1.2040 nh         1 A0Q      -0.598000
     11 C11          2.1380    -0.0010    -1.2750 c          1 A0Q       0.677700
     12 N12          1.4670    -0.0020    -2.4450 ns         1 A0Q      -0.480100
     13 O13          3.3540    -0.0020    -1.2730 o          1 A0Q      -0.568100
     14 C14          2.1660     0.0950    -3.6520 ca         1 A0Q      -0.064700
     15 C15          3.4170    -0.5000    -3.7950 ca         1 A0Q      -0.095000
     16 C16          4.0690    -0.3760    -5.0100 ca         1 A0Q      -0.238300
     17 C17          3.4640     0.3290    -6.0340 ca         1 A0Q       0.396200
     18 N18          2.2790     0.8820    -5.8660 nb         1 A0Q      -0.677000
     19 C19          1.6200     0.7840    -4.7280 ca         1 A0Q       0.385200
     20 C20          6.2690    -1.1990     2.2260 ca         1 A0Q      -0.099000
     21 C21          7.6390    -1.2000     2.0480 ca         1 A0Q      -0.131500
     22 C22          8.3260    -0.0030     1.9620 ca         1 A0Q      -0.116000
     23 C23          7.6420     1.1950     2.0520 ca         1 A0Q      -0.131500
     24 C24          6.2710     1.1960     2.2300 ca         1 A0Q      -0.099000
     25 C25         -2.6160     1.1500     0.4460 c3         1 A0Q       0.164800
     26 C26         -4.1430     1.0720     0.4060 c3         1 A0Q       0.161300
     27 N27         -4.6670     1.0670     1.7790 n3         1 A0Q      -0.733600
     28 C28         -4.1400    -0.0770     2.5360 c3         1 A0Q       0.161300
     29 C29         -2.6120     0.0030     2.5770 c3         1 A0Q       0.164800
     30 C30         -6.1370     1.0680     1.7820 c3         1 A0Q       0.153100
     31 H1          -0.5430     0.0020    -0.9370 ha         1 A0Q       0.136000
     32 H2           1.9230    -0.0010     3.3540 ha         1 A0Q       0.142000
     33 H3          -0.5360     0.0040     3.3430 ha         1 A0Q       0.142000
     34 H4           3.7940     0.8850     3.0550 h1         1 A0Q       0.038700
     35 H5           3.7930    -0.8840     3.0560 h1         1 A0Q       0.038700
     36 H6           0.4720    -0.1080    -2.4500 hn         1 A0Q       0.324500
     37 H7           3.8680    -1.0470    -2.9760 ha         1 A0Q       0.175000
     38 H8           5.0430    -0.8270    -5.1570 ha         1 A0Q       0.140000
     39 H9           3.9720     0.4310    -6.9860 h4         1 A0Q       0.022100
     40 H10          0.6480     1.2520    -4.6280 h4         1 A0Q       0.018100
     41 H11          5.7310    -2.1370     2.2930 ha         1 A0Q       0.132500
     42 H12          8.1760    -2.1390     1.9780 ha         1 A0Q       0.131000
     43 H13          9.4000    -0.0040     1.8230 ha         1 A0Q       0.130000
     44 H14          8.1800     2.1320     1.9840 ha         1 A0Q       0.131000
     45 H15          5.7340     2.1340     2.3000 ha         1 A0Q       0.132500
     46 H16         -2.3150     2.0720     0.9280 h1         1 A0Q       0.048200
     47 H17         -2.2270     1.1220    -0.5650 h1         1 A0Q       0.048200
     48 H18         -4.4440     0.1610    -0.0980 h1         1 A0Q       0.043950
     49 H19         -4.5340     1.9310    -0.1260 h1         1 A0Q       0.043950
     50 H21         -4.5290    -0.0500     3.5470 h1         1 A0Q       0.043950
     51 H22         -4.4400    -0.9980     2.0520 h1         1 A0Q       0.043950
     52 H23         -2.3120     0.9140     3.0810 h1         1 A0Q       0.048200
     53 H24         -2.2210    -0.8560     3.1090 h1         1 A0Q       0.048200
     54 H25         -6.4960     1.0980     2.8030 h1         1 A0Q       0.034033
     55 H26         -6.4980     1.9370     1.2460 h1         1 A0Q       0.034033
     56 H27         -6.4990     0.1690     1.2980 h1         1 A0Q       0.034033
@<TRIPOS>BOND
     1    21    22 ar
     2    21    20 ar
     3    22    23 ar
     4    20     9 ar
     5    23    24 ar
     6     9    24 ar
     7     9     8 1
     8     8     7 1
     9     7     3 1
    10    18    19 ar
    11    18    17 ar
    12    19    14 ar
    13    17    16 ar
    14     4     3 ar
    15     4     5 ar
    16     3     2 ar
    17    14    12 1
    18    14    15 ar
    19    12    11 1
    20    16    15 ar
    21     5     6 ar
    22     2    11 1
    23     2     1 ar
    24    11    13 2
    25     6     1 ar
    26     6    10 1
    27    10    29 1
    28    10    25 1
    29    29    28 1
    30    28    27 1
    31    25    26 1
    32    26    27 1
    33    27    30 1
    34     1    31 1
    35     4    32 1
    36     5    33 1
    37     8    34 1
    38     8    35 1
    39    12    36 1
    40    15    37 1
    41    16    38 1
    42    17    39 1
    43    19    40 1
    44    20    41 1
    45    21    42 1
    46    22    43 1
    47    23    44 1
    48    24    45 1
    49    25    46 1
    50    25    47 1
    51    26    48 1
    52    26    49 1
    53    28    50 1
    54    28    51 1
    55    29    52 1
    56    29    53 1
    57    30    54 1
    58    30    55 1
    59    30    56 1
@<TRIPOS>SUBSTRUCTURE
     1 A0Q         1 TEMP              0 ****  ****    0 ROOT
