@<TRIPOS>MOLECULE
molecule
   52    54     1     0     0
SMALL
bcc


@<TRIPOS>ATOM
      1 C01          0.0000     0.0000     0.0000 c3         1 A0T      -0.114100
      2 C02          1.5300     0.0000     0.0000 c3         1 A0T       0.233800
      3 N03          2.0180     0.0000     1.3810 nu         1 A0T      -0.894900
      4 C04          3.3800    -0.0010     1.6330 ca         1 A0T       0.807200
      5 C05          3.8570    -0.0010     2.9470 ca         1 A0T      -0.559900
      6 C06          5.2240    -0.0020     3.1510 ca         1 A0T       0.575200
      7 N07          6.0350    -0.0020     2.1040 nb         1 A0T      -0.836000
      8 C08          5.5560    -0.0020     0.8700 ca         1 A0T       0.991900
      9 N09          4.2520    -0.0070     0.6310 nb         1 A0T      -0.860000
     10 N10          6.4370    -0.0020    -0.1980 nu         1 A0T      -0.734300
     11 C11          7.8120    -0.0240     0.0330 ca         1 A0T       0.175600
     12 C12          8.3200    -0.7170     1.1250 ca         1 A0T      -0.145000
     13 C13          9.6800    -0.7420     1.3580 ca         1 A0T       0.165900
     14 C14         10.5500    -0.0680     0.4920 ca         1 A0T      -0.164600
     15 C15         10.0370     0.6290    -0.6070 ca         1 A0T      -0.166000
     16 C16          8.6760     0.6450    -0.8360 ca         1 A0T       0.086100
     17 O17          8.1750     1.3170    -1.9080 os         1 A0T      -0.332900
     18 C18          9.1160     1.9790    -2.7550 c3         1 A0T       0.129700
     19 C19         12.0030    -0.0900     0.7380 c          1 A0T       0.681700
     20 O20         12.5710    -1.1500     0.9200 o          1 A0T      -0.588100
     21 N21         12.7010     1.0620     0.7630 n          1 A0T      -0.489800
     22 C22         14.1360     1.0710     1.0880 c3         1 A0T       0.064000
     23 C23         14.3780     2.1200     2.1800 c3         1 A0T       0.120400
     24 O24         13.8120     3.3670     1.7690 os         1 A0T      -0.420600
     25 C25         12.3940     3.3350     1.5880 c3         1 A0T       0.120400
     26 C26         12.0520     2.3480     0.4600 c3         1 A0T       0.064000
     27 C28          2.9030     0.0010     4.1130 c3         1 A0T       0.691200
     28 F27         10.1720    -1.4150     2.4210 f          1 A0T      -0.118900
     29 F29          2.0980     1.1440     4.0560 f          1 A0T      -0.226967
     30 F30          2.0960    -1.1410     4.0560 f          1 A0T      -0.226967
     31 F31          3.6290     0.0000     5.3090 f          1 A0T      -0.226967
     32 H1          -0.3610    -0.0060    -1.0210 hc         1 A0T       0.045700
     33 H2          -0.3610    -0.8820     0.5160 hc         1 A0T       0.045700
     34 H3          -0.3610     0.8870     0.5060 hc         1 A0T       0.045700
     35 H4           1.8910     0.8850    -0.5110 h1         1 A0T       0.054700
     36 H5           1.8910    -0.8850    -0.5110 h1         1 A0T       0.054700
     37 H6           1.3680     0.0260     2.1410 hn         1 A0T       0.460800
     38 H7           5.6270    -0.0020     4.1560 h4         1 A0T       0.047100
     39 H8           6.0870    -0.0280    -1.1360 hn         1 A0T       0.481800
     40 H9           7.6480    -1.2390     1.7950 ha         1 A0T       0.188000
     41 H10         10.7070     1.1500    -1.2800 ha         1 A0T       0.152000
     42 H11          8.6010     2.3910    -3.6150 h1         1 A0T       0.044033
     43 H12          9.5970     2.7790    -2.2050 h1         1 A0T       0.044033
     44 H13          9.8640     1.2700    -3.0880 h1         1 A0T       0.044033
     45 H14         14.4340     0.0940     1.4500 h1         1 A0T       0.065950
     46 H15         14.7070     1.3280     0.2040 h1         1 A0T       0.065950
     47 H16         15.4430     2.2410     2.3350 h1         1 A0T       0.056700
     48 H17         13.9070     1.7970     3.1010 h1         1 A0T       0.056700
     49 H18         11.9200     3.0110     2.5060 h1         1 A0T       0.056700
     50 H19         12.0410     4.3240     1.3210 h1         1 A0T       0.056700
     51 H20         12.4230     2.7290    -0.4830 h1         1 A0T       0.065950
     52 H21         10.9780     2.2110     0.4080 h1         1 A0T       0.065950
@<TRIPOS>BOND
     1     1     2 1
     2    29    27 1
     3     2     3 1
     4     3     4 1
     5    28    13 1
     6    27    31 1
     7    27    30 1
     8    27     5 1
     9     4     5 ar
    10     4     9 ar
    11     5     6 ar
    12     9     8 ar
    13    13    12 ar
    14    13    14 ar
    15    12    11 ar
    16     6     7 ar
    17    20    19 2
    18     8     7 ar
    19     8    10 1
    20    19    14 1
    21    19    21 1
    22    14    15 ar
    23    11    10 1
    24    11    16 ar
    25    21    26 1
    26    21    22 1
    27    26    25 1
    28    22    23 1
    29    15    16 ar
    30    16    17 1
    31    25    24 1
    32    23    24 1
    33    17    18 1
    34     1    32 1
    35     1    33 1
    36     1    34 1
    37     2    35 1
    38     2    36 1
    39     3    37 1
    40     6    38 1
    41    10    39 1
    42    12    40 1
    43    15    41 1
    44    18    42 1
    45    18    43 1
    46    18    44 1
    47    22    45 1
    48    22    46 1
    49    23    47 1
    50    23    48 1
    51    25    49 1
    52    25    50 1
    53    26    51 1
    54    26    52 1
@<TRIPOS>SUBSTRUCTURE
     1 A0T         1 TEMP              0 ****  ****    0 ROOT
