@<TRIPOS>MOLECULE
A0T
   52    54     1     0     0
SMALL
bcc


@<TRIPOS>ATOM
      1 C01          0.0000     0.0000     0.0000 c3         1 A0T      -0.008100
      2 C02          1.5300     0.0000     0.0000 c3         1 A0T       0.161800
      3 N03          2.0180     0.0000     1.3810 nu         1 A0T      -0.483900
      4 C04          3.3800    -0.0010     1.6330 ca         1 A0T       0.639200
      5 C05          3.8570    -0.0010     2.9470 ca         1 A0T      -0.605900
      6 C06          5.2240    -0.0020     3.1510 ca         1 A0T       0.590200
      7 N07          6.0350    -0.0020     2.1040 nb         1 A0T      -0.750000
      8 C08          5.5560    -0.0020     0.8700 ca         1 A0T       0.762900
      9 N09          4.2520    -0.0070     0.6310 nb         1 A0T      -0.766000
     10 N10          6.4370    -0.0020    -0.1980 nu         1 A0T      -0.256300
     11 C11          7.8120    -0.0240     0.0330 ca         1 A0T       0.003600
     12 C12          8.3200    -0.7170     1.1250 ca         1 A0T      -0.119000
     13 C13          9.6800    -0.7420     1.3580 ca         1 A0T       0.147900
     14 C14         10.5500    -0.0680     0.4920 ca         1 A0T      -0.155600
     15 C15         10.0370     0.6290    -0.6070 ca         1 A0T      -0.161000
     16 C16          8.6760     0.6450    -0.8360 ca         1 A0T       0.103100
     17 O17          8.1750     1.3170    -1.9080 os         1 A0T      -0.312900
     18 C18          9.1160     1.9790    -2.7550 c3         1 A0T       0.247700
     19 C19         12.0030    -0.0900     0.7380 c          1 A0T       0.614700
     20 O20         12.5710    -1.1500     0.9200 o          1 A0T      -0.628100
     21 N21         12.7010     1.0620     0.7630 n          1 A0T      -0.147800
     22 C22         14.1360     1.0710     1.0880 c3         1 A0T      -0.004000
     23 C23         14.3780     2.1200     2.1800 c3         1 A0T       0.198900
     24 O24         13.8120     3.3670     1.7690 os         1 A0T      -0.406600
     25 C25         12.3940     3.3350     1.5880 c3         1 A0T       0.198900
     26 C26         12.0520     2.3480     0.4600 c3         1 A0T      -0.004000
     27 C28          2.9030     0.0010     4.1130 c3         1 A0T       0.668200
     28 F27         10.1720    -1.4150     2.4210 f          1 A0T      -0.115900
     29 F29          2.0980     1.1440     4.0560 f          1 A0T      -0.211633
     30 F30          2.0960    -1.1410     4.0560 f          1 A0T      -0.211633
     31 F31          3.6290     0.0000     5.3090 f          1 A0T      -0.211633
     32 H1          -0.3610    -0.0060    -1.0210 hc         1 A0T       0.011367
     33 H2          -0.3610    -0.8820     0.5160 hc         1 A0T       0.011367
     34 H3          -0.3610     0.8870     0.5060 hc         1 A0T       0.011367
     35 H4           1.8910     0.8850    -0.5110 h1         1 A0T       0.026200
     36 H5           1.8910    -0.8850    -0.5110 h1         1 A0T       0.026200
     37 H6           1.3680     0.0260     2.1410 hn         1 A0T       0.309800
     38 H7           5.6270    -0.0020     4.1560 h4         1 A0T      -0.004900
     39 H8           6.0870    -0.0280    -1.1360 hn         1 A0T       0.302800
     40 H9           7.6480    -1.2390     1.7950 ha         1 A0T       0.162000
     41 H10         10.7070     1.1500    -1.2800 ha         1 A0T       0.135000
     42 H11          8.6010     2.3910    -3.6150 h1         1 A0T      -0.000300
     43 H12          9.5970     2.7790    -2.2050 h1         1 A0T      -0.000300
     44 H13          9.8640     1.2700    -3.0880 h1         1 A0T      -0.000300
     45 H14         14.4340     0.0940     1.4500 h1         1 A0T       0.041200
     46 H15         14.7070     1.3280     0.2040 h1         1 A0T       0.041200
     47 H16         15.4430     2.2410     2.3350 h1         1 A0T       0.016450
     48 H17         13.9070     1.7970     3.1010 h1         1 A0T       0.016450
     49 H18         11.9200     3.0110     2.5060 h1         1 A0T       0.016450
     50 H19         12.0410     4.3240     1.3210 h1         1 A0T       0.016450
     51 H20         12.4230     2.7290    -0.4830 h1         1 A0T       0.041200
     52 H21         10.9780     2.2110     0.4080 h1         1 A0T       0.041200
@<TRIPOS>BOND
     1     1     2 1   
     2     1    32 1   
     3     1    33 1   
     4     1    34 1   
     5     2     3 1   
     6     2    35 1   
     7     2    36 1   
     8     3     4 1   
     9     3    37 1   
    10     4     5 ar  
    11     4     9 ar  
    12     5     6 ar  
    13     5    27 1   
    14     6     7 ar  
    15     6    38 1   
    16     7     8 ar  
    17     8     9 ar  
    18     8    10 1   
    19    10    11 1   
    20    10    39 1   
    21    11    12 ar  
    22    11    16 ar  
    23    12    13 ar  
    24    12    40 1   
    25    13    14 ar  
    26    13    28 1   
    27    14    15 ar  
    28    14    19 1   
    29    15    16 ar  
    30    15    41 1   
    31    16    17 1   
    32    17    18 1   
    33    18    42 1   
    34    18    43 1   
    35    18    44 1   
    36    19    20 2   
    37    19    21 1   
    38    21    22 1   
    39    21    26 1   
    40    22    23 1   
    41    22    45 1   
    42    22    46 1   
    43    23    24 1   
    44    23    47 1   
    45    23    48 1   
    46    24    25 1   
    47    25    26 1   
    48    25    49 1   
    49    25    50 1   
    50    26    51 1   
    51    26    52 1   
    52    27    29 1   
    53    27    30 1   
    54    27    31 1   
@<TRIPOS>SUBSTRUCTURE
     1 A0T         1 TEMP              0 ****  ****    0 ROOT
