@<TRIPOS>MOLECULE
molecule
   54    56     1     0     0
SMALL
bcc


@<TRIPOS>ATOM
      1 O01          0.0000     0.0000     0.0000 o          1 A0W      -0.676500
      2 C02          1.2160     0.0000     0.0000 c          1 A0W       0.821500
      3 N03          1.8630     0.0000     1.1760 n          1 A0W      -0.368000
      4 C04          1.0900     0.0010     2.4220 c3         1 A0W       0.112700
      5 C05          1.4340    -1.2480     3.2350 c3         1 A0W      -0.098900
      6 C06          0.6270    -1.2470     4.5350 c3         1 A0W      -0.075900
      7 C07          0.9700     0.0030     5.3490 c3         1 A0W      -0.083400
      8 C08          0.6260     1.2520     4.5340 c3         1 A0W      -0.075900
      9 C09          1.4340     1.2510     3.2340 c3         1 A0W      -0.098900
     10 C10          3.2260     0.0000     1.2360 cc         1 A0W       0.302700
     11 O11          3.8570     0.0010     2.4250 oh         1 A0W      -0.486100
     12 C12          3.9560    -0.0010     0.0460 cd         1 A0W      -0.375400
     13 C13          5.4220    -0.0020     0.0600 c          1 A0W       0.675300
     14 N14          6.1080     0.1270    -1.0930 ns         1 A0W      -0.525900
     15 C15          7.5680     0.0100    -1.0950 c3         1 A0W      -0.005000
     16 C16          8.0850     0.1920    -2.4980 c          1 A0W       0.882600
     17 O17          7.3130     0.3970    -3.4050 o          1 A0W      -0.842800
     18 O18          9.4030     0.1250    -2.7430 o          1 A0W      -0.842800
     19 O19          6.0210    -0.1180     1.1130 o          1 A0W      -0.678100
     20 C20          3.2130    -0.0020    -1.2180 c          1 A0W       0.711700
     21 N21          1.8650    -0.0070    -1.1760 n          1 A0W      -0.467400
     22 C22          1.1010    -0.0080    -2.4250 c3         1 A0W       0.120700
     23 C23          1.4540    -1.2550    -3.2380 c3         1 A0W      -0.100900
     24 C24          0.6550    -1.2560    -4.5430 c3         1 A0W      -0.073900
     25 C25          1.0000    -0.0050    -5.3530 c3         1 A0W      -0.083400
     26 C26          0.6460     1.2420    -4.5410 c3         1 A0W      -0.073900
     27 C27          1.4450     1.2430    -3.2350 c3         1 A0W      -0.100900
     28 O28          3.8000    -0.0020    -2.2840 o          1 A0W      -0.591500
     29 H041         0.0310     0.0010     2.1940 h1         1 A0W       0.098700
     30 H052         1.1870    -2.1320     2.6590 hc         1 A0W       0.059700
     31 H051         2.4920    -1.2460     3.4680 hc         1 A0W       0.059700
     32 H061         0.8730    -2.1300     5.1120 hc         1 A0W       0.041700
     33 H062        -0.4310    -1.2450     4.3020 hc         1 A0W       0.041700
     34 H072         0.3960     0.0030     6.2670 hc         1 A0W       0.042700
     35 H071         2.0290     0.0030     5.5780 hc         1 A0W       0.042700
     36 H081        -0.4310     1.2490     4.3000 hc         1 A0W       0.041700
     37 H082         0.8720     2.1360     5.1090 hc         1 A0W       0.041700
     38 H092         2.4920     1.2480     3.4680 hc         1 A0W       0.059700
     39 H091         1.1880     2.1340     2.6570 hc         1 A0W       0.059700
     40 H111         4.4100     0.7620     2.4870 ho         1 A0W       0.467000
     41 H141         5.6230     0.3520    -1.9390 hn         1 A0W       0.364500
     42 H151         7.8520    -0.9690    -0.7290 h1         1 A0W       0.043200
     43 H152         7.9920     0.7730    -0.4520 h1         1 A0W       0.043200
     44 H221         0.0400    -0.0130    -2.2050 h1         1 A0W       0.084700
     45 H232         1.2080    -2.1410    -2.6650 hc         1 A0W       0.066450
     46 H231         2.5140    -1.2490    -3.4650 hc         1 A0W       0.066450
     47 H241        -0.4040    -1.2570    -4.3160 hc         1 A0W       0.036700
     48 H242         0.9070    -2.1390    -5.1190 hc         1 A0W       0.036700
     49 H251         0.4330    -0.0070    -6.2760 hc         1 A0W       0.046200
     50 H252         2.0610    -0.0010    -5.5750 hc         1 A0W       0.046200
     51 H262        -0.4130     1.2350    -4.3150 hc         1 A0W       0.036700
     52 H261         0.8930     2.1270    -5.1140 hc         1 A0W       0.036700
     53 H272         2.5040     1.2450    -3.4620 hc         1 A0W       0.066450
     54 H271         1.1920     2.1250    -2.6600 hc         1 A0W       0.066450
@<TRIPOS>BOND
     1    17    16 1
     2    16    15 1
     3    16    18 1
     4    15    14 1
     5    19    13 2
     6    14    13 1
     7    13    12 1
     8    11    10 1
     9    12    10 2
    10    12    20 1
    11    28    20 2
    12    10     3 1
    13    20    21 1
    14     3     4 1
    15     3     2 1
    16     5     4 1
    17     5     6 1
    18    21     2 1
    19    21    22 1
    20     9     4 1
    21     9     8 1
    22     2     1 2
    23     6     7 1
    24     7     8 1
    25    22    23 1
    26    22    27 1
    27    23    24 1
    28    27    26 1
    29    24    25 1
    30    26    25 1
    31     4    29 1
    32     5    30 1
    33     5    31 1
    34     6    32 1
    35     6    33 1
    36     7    34 1
    37     7    35 1
    38     8    36 1
    39     8    37 1
    40     9    38 1
    41     9    39 1
    42    11    40 1
    43    14    41 1
    44    15    42 1
    45    15    43 1
    46    22    44 1
    47    23    45 1
    48    23    46 1
    49    24    47 1
    50    24    48 1
    51    25    49 1
    52    25    50 1
    53    26    51 1
    54    26    52 1
    55    27    53 1
    56    27    54 1
@<TRIPOS>SUBSTRUCTURE
     1 A0W         1 TEMP              0 ****  ****    0 ROOT
