@<TRIPOS>MOLECULE
A11
   37    38     1     0     0
SMALL
bcc


@<TRIPOS>ATOM
      1 Cl           0.0000     0.0000     0.0000 cl         1 A11      -0.020400
      2 C2           1.7360     0.0000     0.0000 ca         1 A11       0.047400
      3 C3           2.4470     0.0000     1.1950 ca         1 A11      -0.293300
      4 C4           3.8270    -0.0000     1.1600 ca         1 A11       0.469200
      5 N5           4.4750    -0.0060     0.0100 nb         1 A11      -0.654000
      6 C6           3.8350    -0.0010    -1.1490 ca         1 A11       0.533200
      7 C7           2.4440    -0.0000    -1.1900 ca         1 A11      -0.320300
      8 N8           4.5590    -0.0030    -2.3350 nu         1 A11      -0.505900
      9 C9           3.8570    -0.0040    -3.6220 c3         1 A11       0.128500
     10 C10          3.5000    -1.4410    -4.0070 c3         1 A11      -0.060900
     11 C11          2.7320    -1.4330    -5.3370 c3         1 A11       0.061500
     12 N12          3.5390    -0.7220    -6.3380 n          1 A11      -0.143800
     13 C13          4.0120     0.6350    -6.0310 c3         1 A11       0.061500
     14 C14          4.7610     0.6060    -4.6960 c3         1 A11      -0.060900
     15 C15          3.8350    -1.3020    -7.5190 c          1 A11       0.706100
     16 O16          4.5000    -0.7030    -8.3400 o          1 A11      -0.659000
     17 O17          3.3960    -2.5470    -7.7860 os         1 A11      -0.435900
     18 C18          3.7150    -3.1710    -9.0580 c3         1 A11       0.249400
     19 C19          3.0990    -4.5710    -9.1060 c3         1 A11      -0.005100
     20 H3           1.9240     0.0050     2.1430 ha         1 A11       0.126000
     21 H4           4.3850    -0.0020     2.0880 h4         1 A11      -0.021900
     22 H7           1.9230     0.0040    -2.1390 ha         1 A11       0.136000
     23 HN8          5.5590     0.0330    -2.3110 hn         1 A11       0.303800
     24 H9           2.9490     0.5820    -3.5430 h1         1 A11       0.043700
     25 H101         4.4090    -2.0200    -4.1190 hc         1 A11       0.032450
     26 H102         2.8790    -1.8780    -3.2340 hc         1 A11       0.032450
     27 H111         1.7850    -0.9230    -5.2060 h1         1 A11       0.034700
     28 H112         2.5620    -2.4510    -5.6640 h1         1 A11       0.034700
     29 H131         4.6800     0.9710    -6.8150 h1         1 A11       0.034700
     30 H132         3.1640     1.3050    -5.9560 h1         1 A11       0.034700
     31 H141         5.0290     1.6160    -4.4110 hc         1 A11       0.032450
     32 H142         5.6560     0.0040    -4.7980 hc         1 A11       0.032450
     33 H181         3.3140    -2.5710    -9.8660 h1         1 A11       0.007700
     34 H182         4.7910    -3.2460    -9.1630 h1         1 A11       0.007700
     35 H191         3.5020    -5.1710    -8.2990 hc         1 A11       0.010700
     36 H192         2.0240    -4.4960    -8.9980 hc         1 A11       0.010700
     37 H193         3.3360    -5.0370   -10.0550 hc         1 A11       0.010700
@<TRIPOS>BOND
     1     1     2 1   
     2     2     3 ar  
     3     2     7 ar  
     4     3     4 ar  
     5     3    20 1   
     6     4     5 ar  
     7     4    21 1   
     8     5     6 ar  
     9     6     7 ar  
    10     6     8 1   
    11     7    22 1   
    12     8     9 1   
    13     8    23 1   
    14     9    10 1   
    15     9    14 1   
    16     9    24 1   
    17    10    11 1   
    18    10    25 1   
    19    10    26 1   
    20    11    12 1   
    21    11    27 1   
    22    11    28 1   
    23    12    13 1   
    24    12    15 1   
    25    13    14 1   
    26    13    29 1   
    27    13    30 1   
    28    14    31 1   
    29    14    32 1   
    30    15    16 2   
    31    15    17 1   
    32    17    18 1   
    33    18    19 1   
    34    18    33 1   
    35    18    34 1   
    36    19    35 1   
    37    19    36 1   
    38    19    37 1   
@<TRIPOS>SUBSTRUCTURE
     1 A11         1 TEMP              0 ****  ****    0 ROOT
