@<TRIPOS>MOLECULE
A12
   41    43     1     0     0
SMALL
bcc


@<TRIPOS>ATOM
      1 PB          0.0000    0.0000    0.0000 p5        1 A12      0.528700
      2 O1B         1.4800    0.0000    0.0000 o         1 A12     -0.640500
      3 O2B        -0.5370    0.0000    1.5180 o         1 A12     -0.640500
      4 O3B        -0.5360   -1.3150   -0.7580 o         1 A12     -0.640500
      5 PA         -0.0010    2.9760   -0.0030 p5        1 A12      0.582600
      6 O1A         1.4790    2.9770   -0.0030 o         1 A12     -0.659000
      7 O2A        -0.5370    2.9780    1.5160 o         1 A12     -0.659000
      8 C3A        -0.6080    1.4870   -0.8610 c3        1 A12      0.016200
      9 O5'        -0.5380    4.2900   -0.7620 os        1 A12     -0.470200
     10 C5'         0.0640    5.4160   -0.1190 c3        1 A12      0.240400
     11 C4'        -0.4080    6.7030   -0.7970 c3        1 A12      0.150100
     12 O4'        -1.8210    6.8990   -0.5760 os        1 A12     -0.358600
     13 C3'         0.2670    7.9330   -0.1480 c3        1 A12      0.128100
     14 O3'         1.3870    8.3580   -0.9260 oh        1 A12     -0.562800
     15 C2'        -0.8390    9.0140   -0.1530 c3        1 A12      0.109100
     16 O2'        -0.4330   10.1410   -0.9320 oh        1 A12     -0.553800
     17 C1'        -2.0500    8.3070   -0.8000 c3        1 A12      0.134800
     18 N9         -3.2950    8.7310   -0.1540 na        1 A12      0.208000
     19 C8         -3.9190    8.1040    0.8830 cc        1 A12      0.190700
     20 N7         -5.0000    8.7500    1.2080 nd        1 A12     -0.543100
     21 C5         -5.1340    9.8350    0.4080 ca        1 A12     -0.221200
     22 C6         -6.0820   10.8670    0.2920 ca        1 A12      0.441200
     23 N6         -7.1790   10.9190    1.1330 nv        1 A12     -0.558500
     24 N1         -5.8960   11.7950   -0.6430 nb        1 A12     -0.712000
     25 C2         -4.8520   11.7530   -1.4510 ca        1 A12      0.540900
     26 N3         -3.9440   10.8030   -1.3820 nb        1 A12     -0.715000
     27 C4         -4.0440    9.8320   -0.4790 ca        1 A12      0.266800
     28 H3A1       -1.6910    1.4870   -0.8600 hc        1 A12      0.004200
     29 H3A2       -0.2470    1.4860   -1.8820 hc        1 A12      0.004200
     30 H5'1       -0.2240    5.4310    0.9260 h1        1 A12      0.014200
     31 H5'2        1.1420    5.3410   -0.1960 h1        1 A12      0.014200
     32 H4'        -0.1950    6.6760   -1.8590 h1        1 A12      0.028700
     33 H3'         0.5670    7.7060    0.8680 h1        1 A12      0.020700
     34 HO3'        2.1130    8.5460   -0.3550 ho        1 A12      0.369000
     35 H2'        -1.0760    9.3140    0.8610 h1        1 A12      0.008700
     36 HO2'       -0.3080   10.8860   -0.3670 ho        1 A12      0.368000
     37 H1'        -2.0820    8.5170   -1.8630 h2        1 A12      0.050700
     38 H8         -3.5670    7.2000    1.3650 h5        1 A12      0.053800
     39 HN61       -7.0930   10.6240    2.0860 hn        1 A12      0.247800
     40 HN62       -8.0470   11.2910    0.8010 hn        1 A12      0.247800
     41 H2         -4.7400   12.5290   -2.1970 h5        1 A12     -0.033900
@<TRIPOS>BOND
     1    1    2 1   
     2    1    3 1   
     3    1    4 1   
     4    1    8 1   
     5    5    6 1   
     6    5    7 1   
     7    5    8 1   
     8    5    9 1   
     9    8   28 1   
    10    8   29 1   
    11    9   10 1   
    12   10   11 1   
    13   10   30 1   
    14   10   31 1   
    15   11   12 1   
    16   11   13 1   
    17   11   32 1   
    18   12   17 1   
    19   13   14 1   
    20   13   15 1   
    21   13   33 1   
    22   14   34 1   
    23   15   16 1   
    24   15   17 1   
    25   15   35 1   
    26   16   36 1   
    27   17   18 1   
    28   17   37 1   
    29   18   19 1   
    30   18   27 1   
    31   19   20 2   
    32   19   38 1   
    33   20   21 1   
    34   21   22 ar  
    35   21   27 ar  
    36   22   23 1   
    37   22   24 ar  
    38   23   39 1   
    39   23   40 1   
    40   24   25 ar  
    41   25   26 ar  
    42   25   41 1   
    43   26   27 ar  
@<TRIPOS>SUBSTRUCTURE
     1 A12         1 TEMP              0 ****  ****    0 ROOT
