@<TRIPOS>MOLECULE
A13
   18    18     1     0     0
SMALL
bcc


@<TRIPOS>ATOM
      1 C1           0.0000     0.0000     0.0000 ca         1 A13       0.414600
      2 C2           1.3870     0.0000     0.0000 ca         1 A13      -0.291600
      3 C3           2.0480     0.0000     1.2180 ca         1 A13       0.305600
      4 N4           1.3420    -0.0010     2.3370 nb         1 A13      -0.571000
      5 C5           0.0180    -0.0020     2.3010 ca         1 A13       0.711900
      6 N6          -0.6460    -0.0010     1.1550 nb         1 A13      -0.597000
      7 N7          -0.6890    -0.0040     3.4910 nv         1 A13      -0.635500
      8 C8          -0.7620     0.0060    -1.3000 c3         1 A13      -0.043400
      9 C9           3.5550    -0.0000     1.2670 c3         1 A13       0.540600
     10 F10          4.0210     1.3190     1.2820 f          1 A13      -0.201300
     11 F11          3.9840    -0.6600     2.4230 f          1 A13      -0.201300
     12 F12          4.0580    -0.6590     0.1390 f          1 A13      -0.201300
     13 H2           1.9400     0.0010    -0.9310 ha         1 A13       0.139000
     14 HN71        -0.9450     0.8620     3.9220 hn         1 A13       0.284800
     15 HN72        -0.9440    -0.8710     3.9200 hn         1 A13       0.284800
     16 H81         -1.8250     0.0280    -1.0950 hc         1 A13       0.021367
     17 H82         -0.5220    -0.8870    -1.8640 hc         1 A13       0.021367
     18 H83         -0.4870     0.8820    -1.8760 hc         1 A13       0.021367
@<TRIPOS>BOND
     1     1     2 ar  
     2     1     6 ar  
     3     1     8 1   
     4     2     3 ar  
     5     2    13 1   
     6     3     4 ar  
     7     3     9 1   
     8     4     5 ar  
     9     5     6 ar  
    10     5     7 1   
    11     7    14 1   
    12     7    15 1   
    13     8    16 1   
    14     8    17 1   
    15     8    18 1   
    16     9    10 1   
    17     9    11 1   
    18     9    12 1   
@<TRIPOS>SUBSTRUCTURE
     1 A13         1 TEMP              0 ****  ****    0 ROOT
