@<TRIPOS>MOLECULE
molecule
   45    46     1     0     0
SMALL
bcc


@<TRIPOS>ATOM
      1 C1           0.0000     0.0000     0.0000 c          1 A14       0.867600
      2 C2           1.5190     0.0000     0.0000 c3         1 A14      -0.009500
      3 C3           2.1000     0.0000     1.4220 c3         1 A14      -0.078400
      4 C4           1.6460     1.1730     2.3050 c3         1 A14      -0.073400
      5 C7           2.2110     1.0780     3.7230 c3         1 A14      -0.157400
      6 C10          1.7900     2.2260     4.6250 c          1 A14       0.669100
      7 N11          2.3230     2.1020     5.9020 ns         1 A14      -0.579900
      8 C12          2.0460     3.0770     6.9750 cy         1 A14      -0.003300
      9 C13          2.6360     4.4660     6.6810 c          1 A14       0.547100
     10 N14          1.9730     1.1390    -0.7960 nz         1 A14      -0.794600
     11 O15          1.0490     3.1370     4.2630 o          1 A14      -0.582100
     12 C16          2.9190     3.0470     8.2540 cy         1 A14       0.043400
     13 S17          4.3640     1.9230     8.0930 ss         1 A14      -0.402200
     14 O18          2.5400     5.2390     5.7500 o          1 A14      -0.490100
     15 O19         -0.5080    -1.0960     0.6240 o          1 A14      -0.778300
     16 O20         -0.7100     0.8640    -0.4960 o          1 A14      -0.778300
     17 C30          4.9260     4.5800     7.9750 c3         1 A14      -0.140700
     18 C31          5.4530     4.9560     9.3350 c          1 A14       0.900600
     19 C32          5.5000     3.2280     7.4780 c3         1 A14       0.095100
     20 C33          5.5570     3.1580     5.9420 c3         1 A14      -0.078100
     21 C37          6.9110     2.9240     8.0100 c3         1 A14      -0.078100
     22 O42          6.5900     5.6840     9.2220 o          1 A14      -0.832800
     23 O43          4.9330     4.6540    10.3980 o          1 A14      -0.832800
     24 C15          3.4020     4.4970     8.0140 cy         1 A14      -0.149700
     25 H2           1.8520    -0.9050    -0.4940 hx         1 A14       0.091700
     26 H3C1         3.1800     0.0260     1.3490 hc         1 A14       0.062200
     27 H3C2         1.8120    -0.9240     1.9080 hc         1 A14       0.062200
     28 H141         1.7720     0.9730    -1.7620 hn         1 A14       0.437800
     29 H142         2.9600     1.2580    -0.6760 hn         1 A14       0.437800
     30 H4C1         0.5640     1.1750     2.3570 hc         1 A14       0.060700
     31 H4C2         1.9780     2.1000     1.8550 hc         1 A14       0.060700
     32 H7C1         3.2930     1.0650     3.6640 hc         1 A14       0.059200
     33 H7C2         1.8770     0.1490     4.1680 hc         1 A14       0.059200
     34 H11          2.9160     1.3220     6.1030 hn         1 A14       0.334500
     35 H12          0.9910     3.1410     7.2150 h1         1 A14       0.078700
     36 H16          2.3520     2.9270     9.1690 h1         1 A14       0.100700
     37 H15          2.9620     5.1890     8.7220 hc         1 A14       0.108700
     38 H30          5.2070     5.3510     7.2680 hc         1 A14       0.081700
     39 H331         6.4670     3.6310     5.5930 hc         1 A14       0.040700
     40 H332         5.5460     2.1210     5.6280 hc         1 A14       0.040700
     41 H333         4.7000     3.6710     5.5250 hc         1 A14       0.040700
     42 H371         7.5760     3.7420     7.7600 hc         1 A14       0.040700
     43 H372         7.2780     2.0100     7.5580 hc         1 A14       0.040700
     44 H373         6.8730     2.8040     9.0860 hc         1 A14       0.040700
     45 H143         1.4970     1.9670    -0.4970 hn         1 A14       0.437800
@<TRIPOS>BOND
     1     1     2 1
     2     1    15 1
     3     1    16 1
     4     2     3 1
     5     2    10 1
     6     2    25 1
     7     3     4 1
     8     3    26 1
     9     3    27 1
    10     4     5 1
    11     4    30 1
    12     4    31 1
    13     5     6 1
    14     5    32 1
    15     5    33 1
    16     6     7 1
    17     6    11 2
    18     7     8 1
    19     7    34 1
    20     8     9 1
    21     8    12 1
    22     8    35 1
    23     9    14 2
    24     9    24 1
    25    10    28 1
    26    10    29 1
    27    12    13 1
    28    12    24 1
    29    12    36 1
    30    13    19 1
    31    17    18 1
    32    17    19 1
    33    17    24 1
    34    17    38 1
    35    18    22 1
    36    18    23 1
    37    19    20 1
    38    19    21 1
    39    20    39 1
    40    20    40 1
    41    20    41 1
    42    21    42 1
    43    21    43 1
    44    21    44 1
    45    24    37 1
    46    45    10 1
@<TRIPOS>SUBSTRUCTURE
     1 A14         1 TEMP              0 ****  ****    0 ROOT
