@<TRIPOS>MOLECULE
A15
   44    48     1     0     0
SMALL
bcc


@<TRIPOS>ATOM
      1 C1          0.0090    0.1840   -0.0760 c         1 A15      0.740200
      2 C2          1.4660    0.0320   -0.0690 ca        1 A15     -0.160600
      3 C3          2.1740   -0.0070    1.1140 ca        1 A15     -0.040000
      4 C4          3.5870   -0.0460    1.0890 ca        1 A15     -0.147000
      5 C5          4.2640   -0.0190   -0.1060 ca        1 A15     -0.079000
      6 C6          3.5580    0.0190   -1.3410 ca        1 A15     -0.050000
      7 C7          4.2290    0.0720   -2.5920 ca        1 A15     -0.099000
      8 C8          3.5080    0.1040   -3.7610 ca        1 A15     -0.132000
      9 C9          2.0950    0.0510   -3.7390 ca        1 A15     -0.094000
     10 C10         1.4110   -0.0210   -2.5430 ca        1 A15     -0.110300
     11 C11         2.1420    0.0060   -1.3210 ca        1 A15      0.007000
     12 C12        -0.0910   -0.1800   -2.4940 c3        1 A15      0.334700
     13 C13        -0.4960   -1.6410   -2.5900 ca        1 A15     -0.134300
     14 C14         0.3090   -2.5850   -3.2270 ca        1 A15     -0.060500
     15 C15        -0.0990   -3.9200   -3.3130 ca        1 A15     -0.078600
     16 C16        -1.3250   -4.3160   -2.7530 ca        1 A15      0.146600
     17 C17        -2.1380   -3.3640   -2.1090 ca        1 A15     -0.156000
     18 C18        -1.7220   -2.0430   -2.0340 ca        1 A15     -0.072000
     19 C19        -0.7510    0.6350   -3.5900 ca        1 A15     -0.134300
     20 C20        -1.1040    1.9650   -3.3530 ca        1 A15     -0.060500
     21 C21        -1.6970    2.7270   -4.3630 ca        1 A15     -0.078600
     22 C22        -1.9410    2.1520   -5.6230 ca        1 A15      0.146600
     23 C23        -1.5890    0.8100   -5.8590 ca        1 A15     -0.156000
     24 C24        -1.0020    0.0650   -4.8460 ca        1 A15     -0.072000
     25 O1         -0.6640    0.3380   -1.2660 os        1 A15     -0.421900
     26 O2         -0.7410    0.2880    0.8960 o         1 A15     -0.574500
     27 O3         -1.8120   -5.5970   -2.7840 oh        1 A15     -0.487100
     28 O4         -2.5120    2.8160   -6.6790 oh        1 A15     -0.487100
     29 CL1         0.9080   -5.0450   -4.1000 cl        1 A15     -0.091900
     30 CL2        -2.1170    4.3460   -4.0470 cl        1 A15     -0.091900
     31 H3          1.6390    0.0070    2.0790 ha        1 A15      0.161000
     32 H4          4.1350   -0.0860    2.0430 ha        1 A15      0.144000
     33 H5          5.3650   -0.0250   -0.1310 ha        1 A15      0.140000
     34 H7          5.3290    0.0920   -2.6040 ha        1 A15      0.139000
     35 H8          4.0200    0.1640   -4.7330 ha        1 A15      0.141000
     36 H9          1.5460    0.0600   -4.6950 ha        1 A15      0.148000
     37 H14         1.2770   -2.2890   -3.6650 ha        1 A15      0.161000
     38 H17        -3.0950   -3.6860   -1.6730 ha        1 A15      0.159500
     39 H18        -2.3560   -1.2960   -1.5260 ha        1 A15      0.157000
     40 H20        -0.9260    2.4120   -2.3600 ha        1 A15      0.161000
     41 H23        -1.7910    0.3710   -6.8470 ha        1 A15      0.159500
     42 H24        -0.7390   -0.9890   -5.0330 ha        1 A15      0.157000
     43 HO3        -1.1650   -6.1620   -3.2370 ho        1 A15      0.431500
     44 HO4        -2.7340    3.7160   -6.3920 ho        1 A15      0.431500
@<TRIPOS>BOND
     1    1    2 1   
     2    1   25 1   
     3    1   26 2   
     4    2    3 ar  
     5    2   11 ar  
     6    3    4 ar  
     7    3   31 1   
     8    4    5 ar  
     9    4   32 1   
    10    5    6 ar  
    11    5   33 1   
    12    6    7 ar  
    13    6   11 ar  
    14    7    8 ar  
    15    7   34 1   
    16    8    9 ar  
    17    8   35 1   
    18    9   10 ar  
    19    9   36 1   
    20   10   11 ar  
    21   10   12 1   
    22   12   13 1   
    23   12   19 1   
    24   12   25 1   
    25   13   14 ar  
    26   13   18 ar  
    27   14   15 ar  
    28   14   37 1   
    29   15   16 ar  
    30   15   29 1   
    31   16   17 ar  
    32   16   27 1   
    33   17   18 ar  
    34   17   38 1   
    35   18   39 1   
    36   19   20 ar  
    37   19   24 ar  
    38   20   21 ar  
    39   20   40 1   
    40   21   22 ar  
    41   21   30 1   
    42   22   23 ar  
    43   22   28 1   
    44   23   24 ar  
    45   23   41 1   
    46   24   42 1   
    47   27   43 1   
    48   28   44 1   
@<TRIPOS>SUBSTRUCTURE
     1 A15         1 TEMP              0 ****  ****    0 ROOT
