@<TRIPOS>MOLECULE
molecule
   44    48     1     0     0
SMALL
bcc


@<TRIPOS>ATOM
      1 C1           0.0000     0.0000     0.0000 c          1 A15       0.767200
      2 C2           1.4760     0.0000     0.0000 ca         1 A15      -0.182600
      3 C3           2.2350     0.0000     1.1520 ca         1 A15      -0.038000
      4 C4           3.6250     0.0130     1.0670 ca         1 A15      -0.144000
      5 C5           4.2760     0.0320    -0.1290 ca         1 A15      -0.079000
      6 C6           3.5620     0.0380    -1.3380 ca         1 A15      -0.045000
      7 C7           4.1980     0.0860    -2.5900 ca         1 A15      -0.095000
      8 C8           3.4440     0.0800    -3.7250 ca         1 A15      -0.131000
      9 C9           2.0520     0.0200    -3.6760 ca         1 A15      -0.099000
     10 C10          1.4000    -0.0280    -2.4810 ca         1 A15      -0.114300
     11 C11          2.1490     0.0000    -1.2980 ca         1 A15       0.006000
     12 C12         -0.1020    -0.1190    -2.4180 c3         1 A15       0.339700
     13 C13         -0.5200    -1.5600    -2.5390 ca         1 A15      -0.104300
     14 C14          0.2630    -2.4480    -3.2510 ca         1 A15      -0.090000
     15 C15         -0.1160    -3.7740    -3.3570 ca         1 A15       0.000400
     16 C16         -1.2900    -4.2090    -2.7600 ca         1 A15       0.121600
     17 C17         -2.0750    -3.3140    -2.0470 ca         1 A15      -0.149000
     18 C18         -1.6880    -1.9920    -1.9380 ca         1 A15      -0.096000
     19 C19         -0.6930     0.6710    -3.5580 ca         1 A15      -0.104300
     20 C20         -1.1390     1.9610    -3.3460 ca         1 A15      -0.090000
     21 C21         -1.6770     2.6890    -4.3910 ca         1 A15       0.000400
     22 C22         -1.7810     2.1170    -5.6510 ca         1 A15       0.121600
     23 C23         -1.3380     0.8190    -5.8590 ca         1 A15      -0.149000
     24 C24         -0.7950     0.0990    -4.8120 ca         1 A15      -0.096000
     25 O1          -0.5870     0.4200    -1.1570 os         1 A15      -0.434900
     26 O2          -0.6490    -0.3520     0.9660 o          1 A15      -0.554500
     27 O3          -1.6690    -5.5100    -2.8680 oh         1 A15      -0.509600
     28 O4          -2.3150     2.8280    -6.6800 oh         1 A15      -0.509600
     29 Cl1          0.8690    -4.8900    -4.2510 cl         1 A15      -0.087900
     30 Cl2         -2.2320     4.3120    -4.1260 cl         1 A15      -0.087900
     31 H3           1.7510    -0.0160     2.1210 ha         1 A15       0.154000
     32 H4           4.2070     0.0060     1.9810 ha         1 A15       0.138000
     33 H5           5.3590     0.0420    -0.1480 ha         1 A15       0.137000
     34 H7           5.2790     0.1320    -2.6520 ha         1 A15       0.139000
     35 H8           3.9380     0.1230    -4.6880 ha         1 A15       0.137000
     36 H9           1.4830     0.0180    -4.5970 ha         1 A15       0.145000
     37 H14          1.1800    -2.1090    -3.7170 ha         1 A15       0.162000
     38 H17         -2.9910    -3.6510    -1.5780 ha         1 A15       0.151000
     39 H18         -2.3000    -1.2940    -1.3810 ha         1 A15       0.154000
     40 H20         -1.0570     2.4070    -2.3620 ha         1 A15       0.162000
     41 H23         -1.4170     0.3710    -6.8420 ha         1 A15       0.151000
     42 H24         -0.4480    -0.9150    -4.9750 ha         1 A15       0.154000
     43 HO3         -2.2770    -5.6020    -3.5830 ho         1 A15       0.425500
     44 HO4         -3.2290     2.6150    -6.7680 ho         1 A15       0.425500
@<TRIPOS>BOND
     1     1     2 1
     2     1    25 1
     3     1    26 2
     4     2     3 ar
     5     2    11 ar
     6     3     4 ar
     7     3    31 1
     8     4     5 ar
     9     4    32 1
    10     5     6 ar
    11     5    33 1
    12     6     7 ar
    13     6    11 ar
    14     7     8 ar
    15     7    34 1
    16     8     9 ar
    17     8    35 1
    18     9    10 ar
    19     9    36 1
    20    10    11 ar
    21    10    12 1
    22    12    13 1
    23    12    19 1
    24    12    25 1
    25    13    14 ar
    26    13    18 ar
    27    14    15 ar
    28    14    37 1
    29    15    16 ar
    30    15    29 1
    31    16    17 ar
    32    16    27 1
    33    17    18 ar
    34    17    38 1
    35    18    39 1
    36    19    20 ar
    37    19    24 ar
    38    20    21 ar
    39    20    40 1
    40    21    22 ar
    41    21    30 1
    42    22    23 ar
    43    22    28 1
    44    23    24 ar
    45    23    41 1
    46    24    42 1
    47    27    43 1
    48    28    44 1
@<TRIPOS>SUBSTRUCTURE
     1 A15         1 TEMP              0 ****  ****    0 ROOT
