@<TRIPOS>MOLECULE
A17
   53    57     1     0     0
SMALL
bcc


@<TRIPOS>ATOM
      1 C1           0.0000     0.0000     0.0000 ca         1 A17      -0.140300
      2 C2           1.4200     0.0000     0.0000 ca         1 A17      -0.130300
      3 C3           2.1180     0.0000     1.2140 ca         1 A17      -0.082000
      4 C4           1.4290    -0.0000     2.3870 ca         1 A17      -0.079000
      5 C10         -0.6560    -0.0010    -1.2450 ca         1 A17       0.377200
      6 C12         -0.4370     0.9910     4.6390 ca         1 A17      -0.016000
      7 C13         -1.1190     0.9840     5.8550 ca         1 A17      -0.164600
      8 C16         -1.6360    -0.9930     3.9730 ca         1 A17      -0.050300
      9 O19         -0.0320     2.9010     6.6300 o          1 A17      -0.647100
     10 C15         -2.3100    -0.9950     5.1790 ca         1 A17      -0.110000
     11 C5           0.0260     0.0010     2.4010 cp         1 A17      -0.013000
     12 C6          -0.6910    -0.0050     1.2170 ca         1 A17      -0.078000
     13 N7           0.0610    -0.0020    -2.3460 nb         1 A17      -0.288000
     14 N8           1.3420    -0.0010    -2.3570 nb         1 A17      -0.289000
     15 C9           2.0760    -0.0000    -1.2550 cp         1 A17       0.432800
     16 C11         -0.6960     0.0000     3.6970 cp         1 A17      -0.062000
     17 C14         -2.0580    -0.0160     6.1180 ca         1 A17      -0.077000
     18 C18         -0.8500     2.0330     6.8620 c          1 A17       0.597700
     19 C20         -1.2440     3.0640     9.0330 cx         1 A17      -0.047300
     20 C21         -1.5290     2.7270    10.4980 cx         1 A17      -0.093400
     21 C22         -2.4470     3.6880     9.7430 cx         1 A17      -0.093400
     22 C23          3.5540    -0.0020    -1.3340 cp         1 A17      -0.154500
     23 C24          4.2900     0.9990    -0.6980 ca         1 A17      -0.085000
     24 C25          5.6670     0.9930    -0.7740 ca         1 A17      -0.113000
     25 C26          6.3190    -0.0020    -1.4810 ca         1 A17      -0.086000
     26 C27          5.5960    -0.9970    -2.1140 ca         1 A17      -0.107000
     27 C28          4.2170    -1.0050    -2.0390 ca         1 A17      -0.046300
     28 C29          3.4310    -2.0920    -2.7250 c3         1 A17       0.048200
     29 N30         -1.5110     2.0250     8.0350 ns         1 A17      -0.141900
     30 H3           3.2010    -0.0010     1.2190 ha         1 A17       0.129000
     31 H4           1.9720     0.0040     3.3250 ha         1 A17       0.115000
     32 H6          -1.7740    -0.0040     1.2320 ha         1 A17       0.122000
     33 H29          2.7320    -2.5310    -2.0220 hc         1 A17       0.016367
     34 H20         -0.4100     3.7380     8.8770 h1         1 A17       0.098700
     35 H21         -0.8660     3.1850    11.2210 hc         1 A17       0.048450
     36 H24          3.7810     1.7790    -0.1440 ha         1 A17       0.110000
     37 H22         -2.3450     4.7350    10.0040 hc         1 A17       0.048450
     38 H10         -1.7380    -0.0020    -1.2950 h4         1 A17      -0.007900
     39 H12          0.2920     1.7640     4.4290 ha         1 A17       0.134000
     40 H14         -2.5900    -0.0230     7.0620 ha         1 A17       0.101000
     41 H15         -3.0390    -1.7680     5.3880 ha         1 A17       0.111000
     42 H17         -2.3960    -2.9080     3.4370 hc         1 A17       0.015700
     43 H17A        -0.9850    -2.3900     2.5050 hc         1 A17       0.015700
     44 H17B        -2.5690    -1.6710     2.1840 hc         1 A17       0.015700
     45 H21A        -1.9350     1.7390    10.6800 hc         1 A17       0.048450
     46 H22A        -3.4140     3.2880     9.4630 hc         1 A17       0.048450
     47 H25          6.2400     1.7690    -0.2810 ha         1 A17       0.105000
     48 H26          7.4010    -0.0020    -1.5400 ha         1 A17       0.102000
     49 H27          6.1120    -1.7750    -2.6640 ha         1 A17       0.109000
     50 H29A         4.1090    -2.8570    -3.0840 hc         1 A17       0.016367
     51 H29B         2.8850    -1.6710    -3.5610 hc         1 A17       0.016367
     52 HN30        -2.1510     1.2840     8.2440 hn         1 A17       0.174500
     53 C17         -1.9160    -2.0660     2.9530 c3         1 A17       0.046200
@<TRIPOS>BOND
     1     1     2 ar  
     2     1     5 ar  
     3     1    12 ar  
     4     2     3 ar  
     5     2    15 ar  
     6     3     4 ar  
     7     3    30 1   
     8     4    11 ar  
     9     4    31 1   
    10     5    13 ar  
    11     5    38 1   
    12     6     7 ar  
    13     6    16 ar  
    14     6    39 1   
    15     7    17 ar  
    16     7    18 1   
    17     8    10 ar  
    18     8    16 ar  
    19     8    53 1   
    20     9    18 2   
    21    10    17 ar  
    22    10    41 1   
    23    11    12 ar  
    24    11    16 1   
    25    12    32 1   
    26    13    14 ar  
    27    14    15 ar  
    28    15    22 1   
    29    17    40 1   
    30    18    29 1   
    31    19    20 1   
    32    19    21 1   
    33    19    29 1   
    34    19    34 1   
    35    20    21 1   
    36    20    35 1   
    37    20    45 1   
    38    21    37 1   
    39    21    46 1   
    40    22    23 ar  
    41    22    27 ar  
    42    23    24 ar  
    43    23    36 1   
    44    24    25 ar  
    45    24    47 1   
    46    25    26 ar  
    47    25    48 1   
    48    26    27 ar  
    49    26    49 1   
    50    27    28 1   
    51    28    33 1   
    52    28    50 1   
    53    28    51 1   
    54    29    52 1   
    55    42    53 1   
    56    43    53 1   
    57    44    53 1   
@<TRIPOS>SUBSTRUCTURE
     1 A17         1 TEMP              0 ****  ****    0 ROOT
