@<TRIPOS>MOLECULE
A19
   29    30     1     0     0
SMALL
bcc


@<TRIPOS>ATOM
      1 Cl1          0.0000     0.0000     0.0000 cl         1 A19      -0.057400
      2 C2           1.7210     0.0000     0.0000 ca         1 A19       0.035400
      3 C3           2.3970     0.0000     1.2390 ca         1 A19      -0.119000
      4 C4           3.8040    -0.0160     1.2510 ca         1 A19       0.043000
      5 C5           4.5190    -0.0290     0.0270 ca         1 A19      -0.148500
      6 C6           3.8320    -0.0210    -1.2140 ca         1 A19       0.043000
      7 C7           2.4150    -0.0080    -1.2320 ca         1 A19      -0.119000
      8 S8           6.2910    -0.0820     0.0330 sy         1 A19       0.992200
      9 O9           6.7850     0.6610    -1.0840 o          1 A19      -0.605300
     10 O10          6.7210     0.3550     1.3420 o          1 A19      -0.605300
     11 N11          6.6920    -1.6630    -0.1640 nu         1 A19      -0.365500
     12 C12          6.3220    -2.6800     0.7020 ca         1 A19       0.046600
     13 C13          7.0240    -2.8420     1.9330 ca         1 A19      -0.114000
     14 C14          6.6660    -3.8670     2.8410 ca         1 A19      -0.117000
     15 C15          5.6010    -4.7400     2.5280 ca         1 A19       0.028100
     16 C16          4.8990    -4.6030     1.3240 ca         1 A19      -0.058000
     17 C17          5.2320    -3.5920     0.3980 ca         1 A19      -0.077600
     18 Br18         5.1020    -6.0930     3.7110 br         1 A19      -0.185100
     19 C19          4.4230    -3.5360    -0.8370 c          1 A19       0.980200
     20 O20          3.0860    -3.4810    -0.6590 o          1 A19      -0.874300
     21 O21          4.9170    -3.5400    -1.9200 o          1 A19      -0.874300
     22 H3           1.8460    -0.1650     2.1570 ha         1 A19       0.111500
     23 H4           4.3380     0.0650     2.1900 ha         1 A19       0.117000
     24 H6           4.3860     0.0850    -2.1390 ha         1 A19       0.117000
     25 H7           1.8870     0.2090    -2.1530 ha         1 A19       0.111500
     26 H11          7.2400    -1.9090    -0.9650 hn         1 A19       0.347800
     27 H13          7.8410    -2.1730     2.1750 ha         1 A19       0.110000
     28 H14          7.2050    -3.9800     3.7740 ha         1 A19       0.102000
     29 H16          4.0860    -5.2840     1.1010 ha         1 A19       0.134000
@<TRIPOS>BOND
     1     1     2 1   
     2     2     3 ar  
     3     2     7 ar  
     4     3     4 ar  
     5     3    22 1   
     6     4     5 ar  
     7     4    23 1   
     8     5     6 ar  
     9     5     8 1   
    10     6     7 ar  
    11     6    24 1   
    12     7    25 1   
    13     8     9 2   
    14     8    10 2   
    15     8    11 1   
    16    11    12 1   
    17    11    26 1   
    18    12    13 ar  
    19    12    17 ar  
    20    13    14 ar  
    21    13    27 1   
    22    14    15 ar  
    23    14    28 1   
    24    15    16 ar  
    25    15    18 1   
    26    16    17 ar  
    27    16    29 1   
    28    17    19 1   
    29    19    20 1   
    30    19    21 1   
@<TRIPOS>SUBSTRUCTURE
     1 A19         1 TEMP              0 ****  ****    0 ROOT
