@<TRIPOS>MOLECULE
molecule
   83    86     1     0     0
SMALL
bcc


@<TRIPOS>ATOM
      1 C23          0.0000     0.0000     0.0000 ca         1 A1A      -0.090300
      2 C24          1.3830     0.0000     0.0000 ca         1 A1A      -0.111000
      3 C25          2.0730     0.0000     1.1980 ca         1 A1A      -0.137500
      4 C26          1.3810    -0.0080     2.3950 ca         1 A1A      -0.128000
      5 C27         -0.0010    -0.0140     2.3940 ca         1 A1A      -0.137500
      6 C28         -0.6900    -0.0100     1.1960 ca         1 A1A      -0.111000
      7 C33         -3.1630    -0.0500    -5.0680 ca         1 A1A      -0.091300
      8 C34         -2.3060     0.6990    -5.8530 ca         1 A1A      -0.117000
      9 C35         -1.5780     0.0910    -6.8570 ca         1 A1A      -0.126500
     10 C36         -1.7110    -1.2660    -7.0820 ca         1 A1A      -0.123000
     11 C37         -2.5700    -2.0160    -6.3010 ca         1 A1A      -0.126500
     12 C38         -3.2970    -1.4070    -5.2940 ca         1 A1A      -0.117000
     13 C32         -3.9540     0.6120    -3.9700 c3         1 A1A       0.154100
     14 C7          -7.2870    -4.4580     1.0560 c3         1 A1A       0.167700
     15 C4          -2.0050     1.4310    -2.9280 c3         1 A1A       0.087800
     16 O3          -7.0520    -2.5740    -0.8460 o          1 A1A      -0.620000
     17 N1          -5.7790    -1.1970     0.3410 ns         1 A1A      -0.561900
     18 C22         -0.7530     0.0040    -1.3060 c3         1 A1A      -0.014100
     19 O6          -1.9000     2.0030    -0.5830 oh         1 A1A      -0.558800
     20 O8          -6.5450    -3.2210     1.2150 os         1 A1A      -0.449900
     21 C10          0.0890     2.2600    -1.8950 c          1 A1A       0.631100
     22 O11          0.3430     3.1960    -1.1650 o          1 A1A      -0.610100
     23 N12          0.9170     1.9580    -2.9130 ns         1 A1A      -0.566900
     24 C51          2.0680     2.8160    -3.2030 c3         1 A1A       0.179000
     25 C52          3.2560     2.4010    -2.3630 ca         1 A1A      -0.110300
     26 C57          4.3980     2.3850    -3.1440 ca         1 A1A      -0.087300
     27 C53          3.3350     2.0630    -1.0230 ca         1 A1A      -0.092000
     28 C54          4.5490     1.7110    -0.4650 ca         1 A1A      -0.133000
     29 C55          5.6890     1.6960    -1.2460 ca         1 A1A      -0.121000
     30 C59          2.5210     2.6290    -4.6660 c3         1 A1A       0.132100
     31 O60          2.1740     1.3280    -5.1430 oh         1 A1A      -0.604800
     32 C30         -6.4850    -2.3370     0.2010 c          1 A1A       0.757100
     33 C56          5.6130     2.0330    -2.5830 ca         1 A1A      -0.119000
     34 C58          4.0530     2.7890    -4.5620 c3         1 A1A      -0.065100
     35 C41         -5.6970    -0.2460    -0.7690 c3         1 A1A       0.048700
     36 C42         -6.8480     0.7570    -0.6680 c3         1 A1A      -0.087700
     37 C43         -6.8360     1.6730    -1.8910 c3         1 A1A      -0.091600
     38 C1          -1.1510     1.4380    -1.6600 c3         1 A1A       0.097800
     39 C44         -6.6830     1.5980     0.6000 c3         1 A1A      -0.091600
     40 C45         -4.3840     0.4910    -0.7040 c          1 A1A       0.729100
     41 O46         -3.7170     0.4540     0.3090 o          1 A1A      -0.511100
     42 N47         -3.9480     1.1890    -1.7700 ns         1 A1A      -0.571300
     43 H24          1.9250     0.0070    -0.9380 ha         1 A1A       0.147000
     44 H25          3.1560     0.0020     1.1980 ha         1 A1A       0.125500
     45 H26          1.9220    -0.0100     3.3330 ha         1 A1A       0.123000
     46 H27         -0.5430    -0.0210     3.3310 ha         1 A1A       0.125500
     47 H28         -1.7740    -0.0120     1.1950 ha         1 A1A       0.147000
     48 H34         -2.2020     1.7630    -5.6770 ha         1 A1A       0.133000
     49 H35         -0.9060     0.6790    -7.4710 ha         1 A1A       0.131000
     50 H36         -1.1410    -1.7430    -7.8710 ha         1 A1A       0.131000
     51 H37         -2.6750    -3.0790    -6.4770 ha         1 A1A       0.131000
     52 H38         -3.9690    -1.9950    -4.6800 ha         1 A1A       0.133000
     53 H321        -4.1560     1.6410    -4.2410 h1         1 A1A       0.051700
     54 H322        -4.8900     0.0850    -3.8310 h1         1 A1A       0.051700
     55 H7C1        -8.3230    -4.2310     0.8360 h1         1 A1A       0.048033
     56 H7C2        -6.8620    -5.0320     0.2420 h1         1 A1A       0.048033
     57 H7C3        -7.2300    -5.0330     1.9720 h1         1 A1A       0.048033
     58 H4C1        -2.3260     2.4410    -3.1530 h1         1 A1A       0.055200
     59 H4C2        -1.4210     1.0460    -3.7550 h1         1 A1A       0.055200
     60 H1          -5.2840    -1.0170     1.1920 hn         1 A1A       0.342500
     61 H221        -0.1210    -0.3990    -2.0880 hc         1 A1A       0.067700
     62 H222        -1.6430    -0.6060    -1.2110 hc         1 A1A       0.067700
     63 H6          -1.7520     2.9340    -0.5520 ho         1 A1A       0.412000
     64 H12          0.7520     1.1390    -3.4650 hn         1 A1A       0.339500
     65 H51          1.8250     3.8550    -3.0180 h1         1 A1A       0.092700
     66 H53          2.4420     2.0740    -0.4100 ha         1 A1A       0.161000
     67 H54          4.6070     1.4470     0.5840 ha         1 A1A       0.134000
     68 H55          6.6410     1.4210    -0.8090 ha         1 A1A       0.130000
     69 H59          2.0990     3.4010    -5.2980 h1         1 A1A       0.044700
     70 H60          2.3760     1.2660    -6.0620 ho         1 A1A       0.410000
     71 H56          6.5070     2.0210    -3.1940 ha         1 A1A       0.126000
     72 H581         4.5470     2.1330    -5.2680 hc         1 A1A       0.060700
     73 H582         4.3340     3.8200    -4.7360 hc         1 A1A       0.060700
     74 H41         -5.7650    -0.7800    -1.7090 h1         1 A1A       0.102700
     75 H42         -7.7890     0.2220    -0.6260 hc         1 A1A       0.077700
     76 H431        -6.6000     1.0930    -2.7750 hc         1 A1A       0.038367
     77 H432        -7.8100     2.1320    -2.0090 hc         1 A1A       0.038367
     78 H433        -6.0880     2.4460    -1.7570 hc         1 A1A       0.038367
     79 H441        -5.7810     2.1930     0.5240 hc         1 A1A       0.038367
     80 H442        -6.6130     0.9430     1.4610 hc         1 A1A       0.038367
     81 H443        -7.5390     2.2520     0.7130 hc         1 A1A       0.038367
     82 H47         -4.1520     2.1660    -1.8440 hn         1 A1A       0.322500
     83 N24         -3.1820     0.5780    -2.7210 n3         1 A1A      -0.362600
@<TRIPOS>BOND
     1     1     2 ar
     2     1     6 ar
     3     1    18 1
     4     2     3 ar
     5     2    43 1
     6     3     4 ar
     7     3    44 1
     8     4     5 ar
     9     4    45 1
    10     5     6 ar
    11     5    46 1
    12     6    47 1
    13     7     8 ar
    14     7    12 ar
    15     7    13 1
    16     8     9 ar
    17     8    48 1
    18     9    10 ar
    19     9    49 1
    20    10    11 ar
    21    10    50 1
    22    11    12 ar
    23    11    51 1
    24    12    52 1
    25    13    83 1
    26    13    53 1
    27    13    54 1
    28    14    20 1
    29    14    55 1
    30    14    56 1
    31    14    57 1
    32    15    38 1
    33    15    83 1
    34    15    58 1
    35    15    59 1
    36    16    32 2
    37    17    32 1
    38    17    35 1
    39    17    60 1
    40    18    38 1
    41    18    61 1
    42    18    62 1
    43    19    38 1
    44    19    63 1
    45    20    32 1
    46    21    22 2
    47    21    23 1
    48    21    38 1
    49    23    24 1
    50    23    64 1
    51    24    25 1
    52    24    30 1
    53    24    65 1
    54    25    26 ar
    55    25    27 ar
    56    26    33 ar
    57    26    34 1
    58    27    28 ar
    59    27    66 1
    60    28    29 ar
    61    28    67 1
    62    29    33 ar
    63    29    68 1
    64    30    31 1
    65    30    34 1
    66    30    69 1
    67    31    70 1
    68    33    71 1
    69    34    72 1
    70    34    73 1
    71    35    36 1
    72    35    40 1
    73    35    74 1
    74    36    37 1
    75    36    39 1
    76    36    75 1
    77    37    76 1
    78    37    77 1
    79    37    78 1
    80    39    79 1
    81    39    80 1
    82    39    81 1
    83    40    41 2
    84    40    42 1
    85    83    42 1
    86    42    82 1
@<TRIPOS>SUBSTRUCTURE
     1 A1A         1 TEMP              0 ****  ****    0 ROOT
