@<TRIPOS>MOLECULE
molecule
   50    52     1     0     0
SMALL
bcc


@<TRIPOS>ATOM
      1 C1           0.0000     0.0000     0.0000 ca         1 A1C      -0.090300
      2 C2           1.3810     0.0000     0.0000 ca         1 A1C      -0.098000
      3 C3          -0.6920     0.0010     1.1970 ca         1 A1C      -0.105000
      4 C4          -0.7540     0.0050    -1.3060 c3         1 A1C      -0.165300
      5 C5           2.0730     0.0000     1.1980 ca         1 A1C       0.028400
      6 C6           1.3800     0.0020     2.3960 ca         1 A1C      -0.063300
      7 C7          -0.0020     0.0030     2.3950 ca         1 A1C      -0.117000
      8 C8          -7.9380     1.0830    -1.4320 c3         1 A1C      -0.104400
      9 C9          -7.9200     0.3860    -2.7930 c3         1 A1C       0.099000
     10 C10         -3.0700    -0.9390    -3.3770 ca         1 A1C       0.083600
     11 C11         -4.2040    -1.6180    -2.9490 ca         1 A1C      -0.078000
     12 C12         -3.1810     0.3520    -3.8770 ca         1 A1C      -0.103000
     13 C13         -4.4190     0.9600    -3.9470 ca         1 A1C      -0.130300
     14 C14         -5.5520     0.2810    -3.5200 ca         1 A1C       0.085600
     15 C15         -4.5430     2.3610    -4.4880 c3         1 A1C      -0.030100
     16 C16         -5.4410    -1.0100    -3.0200 ca         1 A1C      -0.167000
     17 C17          2.1330     0.0030     3.7020 c3         1 A1C      -0.050800
     18 C18         -5.8700     2.5050    -5.2350 c3         1 A1C      -0.153400
     19 C19         -6.9940     1.9680    -4.3910 c          1 A1C       0.702500
     20 C20         -9.1020     0.5440    -0.5980 c3         1 A1C      -0.091100
     21 Cl           3.8090    -0.0010     1.2000 cl         1 A1C      -0.101400
     22 N1          -6.8070     0.9010    -3.5920 n          1 A1C      -0.375000
     23 N2          -1.8150    -1.5540    -3.3000 nu         1 A1C      -0.781500
     24 O1           0.1690    -2.3550    -2.1420 o          1 A1C      -0.620800
     25 O2          -8.0820     2.5020    -4.4320 o          1 A1C      -0.625500
     26 O3          -2.0260    -2.3210    -1.0000 o          1 A1C      -0.620800
     27 S           -1.0560    -1.7030    -1.8360 s6         1 A1C       1.327900
     28 H1           1.9230    -0.0010    -0.9380 ha         1 A1C       0.152000
     29 H2          -1.7760     0.0020     1.1960 ha         1 A1C       0.143000
     30 H3          -1.7010     0.5150    -1.1740 h1         1 A1C       0.105200
     31 H4          -0.1690     0.5190    -2.0590 h1         1 A1C       0.105200
     32 H5          -0.5440     0.0040     3.3320 ha         1 A1C       0.142000
     33 H6          -8.0590     2.1500    -1.5740 hc         1 A1C       0.052700
     34 H7          -7.0040     0.8910    -0.9160 hc         1 A1C       0.052700
     35 H8          -7.7990    -0.6810    -2.6510 h1         1 A1C       0.066200
     36 H9          -8.8540     0.5780    -3.3090 h1         1 A1C       0.066200
     37 H10         -4.1170    -2.6250    -2.5590 ha         1 A1C       0.162000
     38 H11         -2.2980     0.8820    -4.2110 ha         1 A1C       0.138000
     39 H12         -3.7310     2.5400    -5.1820 hc         1 A1C       0.061200
     40 H13         -4.5330     3.0570    -3.6580 hc         1 A1C       0.061200
     41 H14         -6.3260    -1.5390    -2.6860 ha         1 A1C       0.148000
     42 H15          2.7560     0.8870     3.7590 hc         1 A1C       0.051700
     43 H16          2.7550    -0.8820     3.7610 hc         1 A1C       0.051700
     44 H17          1.4280     0.0040     4.5250 hc         1 A1C       0.051700
     45 H18         -5.8210     1.9480    -6.1630 hc         1 A1C       0.079700
     46 H19         -6.0500     3.5520    -5.4470 hc         1 A1C       0.079700
     47 H20        -10.0300     0.6860    -1.1380 hc         1 A1C       0.036700
     48 H21         -9.1480     1.0770     0.3450 hc         1 A1C       0.036700
     49 H22         -8.9520    -0.5120    -0.4080 hc         1 A1C       0.036700
     50 H23         -1.3900    -1.9270    -4.1250 hn         1 A1C       0.465800
@<TRIPOS>BOND
     1    26    27 2
     2     4    27 1
     3     4     1 1
     4     3     1 ar
     5     3     7 ar
     6    27    24 2
     7    27    23 1
     8     1     2 ar
     9     7     6 ar
    10     2     5 ar
    11     6     5 ar
    12     6    17 1
    13    23    10 1
    14     5    21 1
    15    10    12 ar
    16    10    11 ar
    17    12    13 ar
    18    11    16 ar
    19    13    15 1
    20    13    14 ar
    21    15    18 1
    22    16    14 ar
    23    14    22 1
    24    18    19 1
    25    19    22 1
    26    19    25 2
    27    22     9 1
    28     9     8 1
    29     8    20 1
    30     2    28 1
    31     3    29 1
    32     4    30 1
    33     4    31 1
    34     7    32 1
    35     8    33 1
    36     8    34 1
    37     9    35 1
    38     9    36 1
    39    11    37 1
    40    12    38 1
    41    15    39 1
    42    15    40 1
    43    16    41 1
    44    17    42 1
    45    17    43 1
    46    17    44 1
    47    18    45 1
    48    18    46 1
    49    20    47 1
    50    20    48 1
    51    20    49 1
    52    23    50 1
@<TRIPOS>SUBSTRUCTURE
     1 A1C         1 TEMP              0 ****  ****    0 ROOT
