@<TRIPOS>MOLECULE
A1C
   50    52     1     0     0
SMALL
bcc


@<TRIPOS>ATOM
      1 C1           0.0000     0.0000     0.0000 ca         1 A1C      -0.086300
      2 C2           1.3810     0.0000     0.0000 ca         1 A1C      -0.078000
      3 C3          -0.6920     0.0010     1.1970 ca         1 A1C      -0.081000
      4 C4          -0.7540     0.0050    -1.3060 c3         1 A1C       0.058700
      5 C5           2.0730     0.0000     1.1980 ca         1 A1C      -0.033600
      6 C6           1.3800     0.0020     2.3960 ca         1 A1C      -0.077300
      7 C7          -0.0020     0.0030     2.3950 ca         1 A1C      -0.087000
      8 C8          -7.9380     1.0830    -1.4320 c3         1 A1C      -0.048400
      9 C9          -7.9200     0.3860    -2.7930 c3         1 A1C       0.019000
     10 C10         -3.0700    -0.9390    -3.3770 ca         1 A1C       0.015600
     11 C11         -4.2040    -1.6180    -2.9490 ca         1 A1C      -0.053000
     12 C12         -3.1810     0.3520    -3.8770 ca         1 A1C      -0.087000
     13 C13         -4.4190     0.9600    -3.9470 ca         1 A1C      -0.129300
     14 C14         -5.5520     0.2810    -3.5200 ca         1 A1C      -0.055400
     15 C15         -4.5430     2.3610    -4.4880 c3         1 A1C       0.042900
     16 C16         -5.4410    -1.0100    -3.0200 ca         1 A1C      -0.141000
     17 C17          2.1330     0.0030     3.7020 c3         1 A1C       0.057200
     18 C18         -5.8700     2.5050    -5.2350 c3         1 A1C      -0.096400
     19 C19         -6.9940     1.9680    -4.3910 c          1 A1C       0.613500
     20 C20         -9.1020     0.5440    -0.5980 c3         1 A1C       0.012900
     21 Cl           3.8090    -0.0010     1.2000 cl         1 A1C      -0.018400
     22 N1          -6.8070     0.9010    -3.5920 n          1 A1C       0.019000
     23 N2          -1.8150    -1.5540    -3.3000 nu         1 A1C      -0.431500
     24 O1           0.1690    -2.3550    -2.1420 o          1 A1C      -0.576800
     25 O2          -8.0820     2.5020    -4.4320 o          1 A1C      -0.667500
     26 O3          -2.0260    -2.3210    -1.0000 o          1 A1C      -0.576800
     27 S           -1.0560    -1.7030    -1.8360 s6         1 A1C       0.950900
     28 H1           1.9230    -0.0010    -0.9380 ha         1 A1C       0.123000
     29 H2          -1.7760     0.0020     1.1960 ha         1 A1C       0.115000
     30 H3          -1.7010     0.5150    -1.1740 h1         1 A1C       0.071200
     31 H4          -0.1690     0.5190    -2.0590 h1         1 A1C       0.071200
     32 H5          -0.5440     0.0040     3.3320 ha         1 A1C       0.112000
     33 H6          -8.0590     2.1500    -1.5740 hc         1 A1C       0.022700
     34 H7          -7.0040     0.8910    -0.9160 hc         1 A1C       0.022700
     35 H8          -7.7990    -0.6810    -2.6510 h1         1 A1C       0.042200
     36 H9          -8.8540     0.5780    -3.3090 h1         1 A1C       0.042200
     37 H10         -4.1170    -2.6250    -2.5590 ha         1 A1C       0.133000
     38 H11         -2.2980     0.8820    -4.2110 ha         1 A1C       0.110000
     39 H12         -3.7310     2.5400    -5.1820 hc         1 A1C       0.026700
     40 H13         -4.5330     3.0570    -3.6580 hc         1 A1C       0.026700
     41 H14         -6.3260    -1.5390    -2.6860 ha         1 A1C       0.125000
     42 H15          2.7560     0.8870     3.7590 hc         1 A1C       0.014033
     43 H16          2.7550    -0.8820     3.7610 hc         1 A1C       0.014033
     44 H17          1.4280     0.0040     4.5250 hc         1 A1C       0.014033
     45 H18         -5.8210     1.9480    -6.1630 hc         1 A1C       0.043700
     46 H19         -6.0500     3.5520    -5.4470 hc         1 A1C       0.043700
     47 H20        -10.0300     0.6860    -1.1380 hc         1 A1C       0.002700
     48 H21         -9.1480     1.0770     0.3450 hc         1 A1C       0.002700
     49 H22         -8.9520    -0.5120    -0.4080 hc         1 A1C       0.002700
     50 H23         -1.3900    -1.9270    -4.1250 hn         1 A1C       0.351800
@<TRIPOS>BOND
     1     1     2 ar  
     2     1     3 ar  
     3     1     4 1   
     4     2     5 ar  
     5     2    28 1   
     6     3     7 ar  
     7     3    29 1   
     8     4    27 1   
     9     4    30 1   
    10     4    31 1   
    11     5     6 ar  
    12     5    21 1   
    13     6     7 ar  
    14     6    17 1   
    15     7    32 1   
    16     8     9 1   
    17     8    20 1   
    18     8    33 1   
    19     8    34 1   
    20     9    22 1   
    21     9    35 1   
    22     9    36 1   
    23    10    11 ar  
    24    10    12 ar  
    25    10    23 1   
    26    11    16 ar  
    27    11    37 1   
    28    12    13 ar  
    29    12    38 1   
    30    13    14 ar  
    31    13    15 1   
    32    14    16 ar  
    33    14    22 1   
    34    15    18 1   
    35    15    39 1   
    36    15    40 1   
    37    16    41 1   
    38    17    42 1   
    39    17    43 1   
    40    17    44 1   
    41    18    19 1   
    42    18    45 1   
    43    18    46 1   
    44    19    22 1   
    45    19    25 2   
    46    20    47 1   
    47    20    48 1   
    48    20    49 1   
    49    23    27 1   
    50    23    50 1   
    51    24    27 2   
    52    26    27 2   
@<TRIPOS>SUBSTRUCTURE
     1 A1C         1 TEMP              0 ****  ****    0 ROOT
