@<TRIPOS>MOLECULE
A1E
   82    86     1     0     0
SMALL
bcc


@<TRIPOS>ATOM
      1 C1          0.0340    0.1140   -0.2170 c3        1 A1E     -0.074400
      2 C2          1.4350   -0.3490    0.1110 c3        1 A1E     -0.100400
      3 C3          1.7840   -0.0720    1.5790 c3        1 A1E      0.231700
      4 C4          1.1170    1.1230    2.1640 cc        1 A1E     -0.330200
      5 C5          0.2570    1.9410    1.4350 cd        1 A1E      0.163400
      6 C6         -0.1000    1.6040    0.0130 c3        1 A1E     -0.078200
      7 C7          1.3080    1.3940    3.5630 cc        1 A1E     -0.066000
      8 C8          0.7520    2.4820    4.1420 cd        1 A1E     -0.215200
      9 C9         -0.0750    3.4080    3.3630 c         1 A1E      0.684700
     10 N10        -0.3010    3.0520    2.0040 n         1 A1E     -0.429100
     11 O11        -0.5920    4.4520    3.7800 o         1 A1E     -0.560500
     12 N12         3.2940    0.0860    1.7380 n4        1 A1E     -0.775000
     13 C13         4.0290   -1.1960    1.5510 c3        1 A1E      0.097800
     14 C14         5.5380   -1.0330    1.6850 c3        1 A1E     -0.108400
     15 C15         6.2090   -2.3780    1.4850 c3        1 A1E     -0.078400
     16 C16         7.7130   -2.2490    1.6120 c3        1 A1E     -0.079400
     17 C17         8.3890   -3.5890    1.4090 c3        1 A1E     -0.079400
     18 C18         9.8930   -3.4630    1.5320 c3        1 A1E     -0.079400
     19 C19        10.5720   -4.8000    1.3250 c3        1 A1E     -0.079400
     20 C20        12.0760   -4.6730    1.4420 c3        1 A1E     -0.079400
     21 C21        12.7520   -6.0100    1.2240 c3        1 A1E     -0.084400
     22 C22        14.2670   -5.8520    1.3410 c3        1 A1E      0.166800
     23 N23        14.9770   -7.0960    1.0890 nh        1 A1E     -0.712600
     24 C24        16.3960   -6.9880    1.1960 ca        1 A1E      0.114600
     25 C25        17.0630   -7.2000    2.4570 ca        1 A1E     -0.168300
     26 C26        18.4890   -7.1740    2.4710 ca        1 A1E      0.406600
     27 N27        19.2300   -6.9330    1.3370 nb        1 A1E     -0.670000
     28 C28        18.5980   -6.7200    0.1880 ca        1 A1E      0.444600
     29 C29        17.1620   -6.7380    0.0570 ca        1 A1E     -0.163600
     30 C30        16.3700   -7.4320    3.6740 ca        1 A1E     -0.125000
     31 C31        17.0530   -7.6450    4.8460 ca        1 A1E     -0.125000
     32 C32        18.4670   -7.6350    4.8620 ca        1 A1E     -0.127000
     33 C33        19.1750   -7.4050    3.7100 ca        1 A1E     -0.160300
     34 C34        19.4550   -6.4280   -1.0180 c3        1 A1E     -0.133700
     35 C35        18.7530   -6.7500   -2.3160 c3        1 A1E     -0.080400
     36 C36        17.4110   -6.0590   -2.3660 c3        1 A1E     -0.080400
     37 C37        16.5020   -6.5570   -1.2640 c3        1 A1E     -0.023100
     38 H11        -0.1890   -0.1180   -1.2930 hc        1 A1E      0.080700
     39 H12A       -0.7130   -0.4410    0.4100 hc        1 A1E      0.080700
     40 H21         1.5190   -1.4520   -0.0820 hc        1 A1E      0.067200
     41 H22         2.1510    0.1700   -0.5830 hc        1 A1E      0.067200
     42 H3          1.5120   -0.9810    2.2000 hx        1 A1E      0.103700
     43 H61        -1.1530    1.9200   -0.2250 hc        1 A1E      0.088700
     44 H62         0.5810    2.1730   -0.6770 hc        1 A1E      0.088700
     45 H7          1.8900    0.6810    4.1690 ha        1 A1E      0.131000
     46 H8          0.8620    2.7280    5.2100 ha        1 A1E      0.187000
     47 H10        -0.9250    3.6230    1.4690 hn        1 A1E      0.351500
     48 H12         3.4880    0.4560    2.6760 hn        1 A1E      0.446300
     49 H131        3.6530   -1.9300    2.3210 hx        1 A1E      0.102700
     50 H132        3.7740   -1.5940    0.5260 hx        1 A1E      0.102700
     51 H141        5.9240   -0.3060    0.9210 hc        1 A1E      0.065700
     52 H142        5.8010   -0.6330    2.7010 hc        1 A1E      0.065700
     53 H151        5.9510   -2.7840    0.4710 hc        1 A1E      0.054200
     54 H152        5.8290   -3.1090    2.2460 hc        1 A1E      0.054200
     55 H161        7.9740   -1.8460    2.6260 hc        1 A1E      0.048700
     56 H162        8.0950   -1.5160    0.8530 hc        1 A1E      0.048700
     57 H171        8.0100   -4.3220    2.1690 hc        1 A1E      0.045700
     58 H172        8.1280   -3.9940    0.3960 hc        1 A1E      0.045700
     59 H181       10.2730   -2.7270    0.7750 hc        1 A1E      0.043700
     60 H182       10.1560   -3.0610    2.5460 hc        1 A1E      0.043700
     61 H191       10.3060   -5.2040    0.3120 hc        1 A1E      0.043200
     62 H192       10.1950   -5.5350    2.0840 hc        1 A1E      0.043200
     63 H201       12.3420   -4.2740    2.4560 hc        1 A1E      0.043200
     64 H202       12.4510   -3.9340    0.6860 hc        1 A1E      0.043200
     65 H211       12.3820   -6.7480    1.9830 hc        1 A1E      0.048700
     66 H212       12.4850   -6.4090    0.2110 hc        1 A1E      0.048700
     67 H221       14.5050   -5.4330    2.3640 h1        1 A1E      0.037700
     68 H222       14.6180   -5.0970    0.5820 h1        1 A1E      0.037700
     69 H23        14.6380   -7.8240    1.6920 hn        1 A1E      0.373800
     70 H30        15.2700   -7.4340    3.6900 ha        1 A1E      0.122000
     71 H31        16.5100   -7.8240    5.7860 ha        1 A1E      0.133000
     72 H32        18.9930   -7.8140    5.8120 ha        1 A1E      0.138000
     73 H33        20.2760   -7.3930    3.7170 ha        1 A1E      0.153000
     74 H341       20.4170   -7.0050   -0.9620 hc        1 A1E      0.066700
     75 H342       19.7200   -5.3350   -0.9920 hc        1 A1E      0.066700
     76 H351       18.6130   -7.8590   -2.4140 hc        1 A1E      0.049200
     77 H352       19.3910   -6.4140   -3.1740 hc        1 A1E      0.049200
     78 H361       16.9210   -6.2430   -3.3580 hc        1 A1E      0.042200
     79 H362       17.5580   -4.9510   -2.2670 hc        1 A1E      0.042200
     80 H371       15.6420   -5.8390   -1.1660 hc        1 A1E      0.057200
     81 H372       16.0640   -7.5500   -1.5650 hc        1 A1E      0.057200
     82 H122        3.6310    0.7750    1.0580 hn        1 A1E      0.446300
@<TRIPOS>BOND
     1    1    2 1   
     2    1    6 1   
     3    1   38 1   
     4    1   39 1   
     5    2    3 1   
     6    2   40 1   
     7    2   41 1   
     8    3    4 1   
     9    3   12 1   
    10    3   42 1   
    11    4    5 2   
    12    4    7 1   
    13    5    6 1   
    14    5   10 1   
    15    6   43 1   
    16    6   44 1   
    17    7    8 2   
    18    7   45 1   
    19    8    9 1   
    20    8   46 1   
    21    9   10 1   
    22    9   11 2   
    23   10   47 1   
    24   12   13 1   
    25   12   48 1   
    26   12   82 1   
    27   13   14 1   
    28   13   49 1   
    29   13   50 1   
    30   14   15 1   
    31   14   51 1   
    32   14   52 1   
    33   15   16 1   
    34   15   53 1   
    35   15   54 1   
    36   16   17 1   
    37   16   55 1   
    38   16   56 1   
    39   17   18 1   
    40   17   57 1   
    41   17   58 1   
    42   18   19 1   
    43   18   59 1   
    44   18   60 1   
    45   19   20 1   
    46   19   61 1   
    47   19   62 1   
    48   20   21 1   
    49   20   63 1   
    50   20   64 1   
    51   21   22 1   
    52   21   65 1   
    53   21   66 1   
    54   22   23 1   
    55   22   67 1   
    56   22   68 1   
    57   23   24 1   
    58   23   69 1   
    59   24   25 ar  
    60   24   29 ar  
    61   25   26 ar  
    62   25   30 ar  
    63   26   27 ar  
    64   26   33 ar  
    65   27   28 ar  
    66   28   29 ar  
    67   28   34 1   
    68   29   37 1   
    69   30   31 ar  
    70   30   70 1   
    71   31   32 ar  
    72   31   71 1   
    73   32   33 ar  
    74   32   72 1   
    75   33   73 1   
    76   34   35 1   
    77   34   74 1   
    78   34   75 1   
    79   35   36 1   
    80   35   76 1   
    81   35   77 1   
    82   36   37 1   
    83   36   78 1   
    84   36   79 1   
    85   37   80 1   
    86   37   81 1   
@<TRIPOS>SUBSTRUCTURE
     1 A1E         1 TEMP              0 ****  ****    0 ROOT
