@<TRIPOS>MOLECULE
A1F
   50    52     1     0     0
SMALL
bcc


@<TRIPOS>ATOM
      1 C1           0.0000     0.0000     0.0000 ca         1 A1F      -0.126300
      2 C2           1.3850     0.0000     0.0000 ca         1 A1F       0.128900
      3 C3          -0.6910     0.0010     1.1970 ca         1 A1F      -0.056000
      4 C4          -0.7530     0.0060    -1.3050 c3         1 A1F       0.060700
      5 C5           2.0750     0.0000     1.2000 ca         1 A1F      -0.132000
      6 C6           1.3830     0.0010     2.3970 ca         1 A1F      -0.055300
      7 C7           0.0000     0.0020     2.3940 ca         1 A1F      -0.111000
      8 C8          -7.9430     1.0540    -1.3240 c3         1 A1F      -0.047400
      9 C9          -7.9420     0.3600    -2.6880 c3         1 A1F       0.019000
     10 C10         -3.0960    -0.9410    -3.3460 ca         1 A1F       0.016600
     11 C11         -4.2200    -1.6270    -2.9020 ca         1 A1F      -0.054000
     12 C12         -3.2200     0.3500    -3.8400 ca         1 A1F      -0.086000
     13 C13         -4.4600     0.9530    -3.8900 ca         1 A1F      -0.129300
     14 C14         -5.5840     0.2680    -3.4480 ca         1 A1F      -0.056400
     15 C15         -4.5990     2.3540    -4.4250 c3         1 A1F       0.042900
     16 C16         -5.4610    -1.0240    -2.9550 ca         1 A1F      -0.141000
     17 C17          2.1350     0.0020     3.7020 c3         1 A1F       0.062200
     18 C18         -5.9370     2.4950    -5.1520 c3         1 A1F      -0.096400
     19 C19         -7.0460     1.9500    -4.2950 c          1 A1F       0.613500
     20 C20         -9.0920     0.5070    -0.4740 c3         1 A1F       0.012900
     21 F1           2.0610    -0.0010    -1.1690 f          1 A1F      -0.120900
     22 N1          -6.8420     0.8830    -3.5020 n          1 A1F       0.019000
     23 N2          -1.8370    -1.5510    -3.2880 nu         1 A1F      -0.430500
     24 O1           0.1670    -2.3480    -2.1620 o          1 A1F      -0.575300
     25 O2          -8.1360     2.4800    -4.3180 o          1 A1F      -0.668500
     26 O3          -2.0110    -2.3270    -0.9870 o          1 A1F      -0.575300
     27 S           -1.0560    -1.7020    -1.8360 s6         1 A1F       0.948900
     28 H1          -1.7740     0.0010     1.1970 ha         1 A1F       0.117000
     29 H2          -1.7000     0.5160    -1.1730 h1         1 A1F       0.075200
     30 H3          -0.1680     0.5200    -2.0570 h1         1 A1F       0.075200
     31 H4           3.1590    -0.0000     1.2010 ha         1 A1F       0.124000
     32 H5          -0.5420     0.0030     3.3320 ha         1 A1F       0.113000
     33 H6          -7.0020     0.8650    -0.8220 hc         1 A1F       0.022200
     34 H7          -8.0720     2.1200    -1.4620 hc         1 A1F       0.022200
     35 H8          -7.8130    -0.7070    -2.5500 h1         1 A1F       0.042200
     36 H9          -8.8840     0.5480    -3.1900 h1         1 A1F       0.042200
     37 H10         -4.1240    -2.6350    -2.5170 ha         1 A1F       0.133000
     38 H11         -2.3430     0.8850    -4.1850 ha         1 A1F       0.111000
     39 H12         -3.7980     2.5390    -5.1310 hc         1 A1F       0.026700
     40 H13         -4.5790     3.0490    -3.5940 hc         1 A1F       0.026700
     41 H14         -6.3380    -1.5570    -2.6100 ha         1 A1F       0.125000
     42 H15          1.4320     0.0810     4.5230 hc         1 A1F       0.011367
     43 H16          2.8150     0.8450     3.7270 hc         1 A1F       0.011367
     44 H17          2.6970    -0.9190     3.7960 hc         1 A1F       0.011367
     45 H18         -6.1250     3.5420    -5.3580 hc         1 A1F       0.043700
     46 H19         -5.8990     1.9420    -6.0830 hc         1 A1F       0.043700
     47 H20         -8.9330    -0.5480    -0.2870 hc         1 A1F       0.002700
     48 H21        -10.0280     0.6420    -1.0020 hc         1 A1F       0.002700
     49 H22         -9.1290     1.0390     0.4690 hc         1 A1F       0.002700
     50 H23         -1.4250    -1.9260    -4.1190 hn         1 A1F       0.352800
@<TRIPOS>BOND
     1     1     2 ar  
     2     1     3 ar  
     3     1     4 1   
     4     2     5 ar  
     5     2    21 1   
     6     3     7 ar  
     7     3    28 1   
     8     4    27 1   
     9     4    29 1   
    10     4    30 1   
    11     5     6 ar  
    12     5    31 1   
    13     6     7 ar  
    14     6    17 1   
    15     7    32 1   
    16     8     9 1   
    17     8    20 1   
    18     8    33 1   
    19     8    34 1   
    20     9    22 1   
    21     9    35 1   
    22     9    36 1   
    23    10    11 ar  
    24    10    12 ar  
    25    10    23 1   
    26    11    16 ar  
    27    11    37 1   
    28    12    13 ar  
    29    12    38 1   
    30    13    14 ar  
    31    13    15 1   
    32    14    16 ar  
    33    14    22 1   
    34    15    18 1   
    35    15    39 1   
    36    15    40 1   
    37    16    41 1   
    38    17    42 1   
    39    17    43 1   
    40    17    44 1   
    41    18    19 1   
    42    18    45 1   
    43    18    46 1   
    44    19    22 1   
    45    19    25 2   
    46    20    47 1   
    47    20    48 1   
    48    20    49 1   
    49    23    27 1   
    50    23    50 1   
    51    24    27 2   
    52    26    27 2   
@<TRIPOS>SUBSTRUCTURE
     1 A1F         1 TEMP              0 ****  ****    0 ROOT
