@<TRIPOS>MOLECULE
A1H
   37    40     1     0     0
SMALL
bcc


@<TRIPOS>ATOM
      1 O01          0.0000     0.0000     0.0000 o          1 A1H      -0.558500
      2 C02          1.2180     0.0000     0.0000 c          1 A1H       0.625700
      3 C03          2.0550     0.0000     1.1450 cc         1 A1H      -0.403300
      4 N04          1.6260     0.0030     2.4850 na         1 A1H       0.778200
      5 C05          2.4300     0.0080     3.5820 cc         1 A1H      -0.508600
      6 C06          1.6030     0.0160     4.6530 cd         1 A1H       0.308200
      7 N07          0.3550     0.0160     4.1710 nd         1 A1H      -0.324000
      8 N08          0.4020     0.0090     2.8860 nc         1 A1H      -0.355800
      9 C09          3.3400    -0.0060     0.7210 cd         1 A1H      -0.016000
     10 N10          3.3430    -0.0080    -0.6460 na         1 A1H      -0.217000
     11 N11          2.0150    -0.0050    -1.0880 n          1 A1H      -0.014700
     12 C12          1.5910    -0.0110    -2.4120 ca         1 A1H       0.445200
     13 N13          0.2930    -0.0060    -2.7060 nb         1 A1H      -0.625000
     14 C14         -0.1160    -0.0130    -3.9580 ca         1 A1H       0.694900
     15 N15          0.7290    -0.0230    -4.9680 nb         1 A1H      -0.694000
     16 C16          2.0440    -0.0280    -4.7580 ca         1 A1H       0.559200
     17 N17          2.9280    -0.0380    -5.8250 nh         1 A1H      -0.459300
     18 C18          2.2060    -0.0420    -7.1070 c3         1 A1H       0.102300
     19 C19          3.2160     0.0050    -8.2550 c3         1 A1H       0.211900
     20 O20          4.1170    -1.0990    -8.1380 os         1 A1H      -0.406600
     21 C21          4.8380    -1.1250    -6.9030 c3         1 A1H       0.211900
     22 C22          3.8430    -1.1850    -5.7400 c3         1 A1H       0.102300
     23 C23          2.5180    -0.0160    -3.4480 ca         1 A1H      -0.437600
     24 H051         3.5130     0.0060     3.5950 h4         1 A1H       0.155000
     25 H061         1.8940     0.0220     5.6970 h4         1 A1H       0.010100
     26 H091         4.0880    -0.5700     1.2660 h4         1 A1H       0.155000
     27 H101         4.1560    -0.0120    -1.2310 hn         1 A1H       0.333800
     28 H141        -1.1800    -0.0090    -4.1640 h5         1 A1H       0.008100
     29 H182         1.6140    -0.9460    -7.1840 h1         1 A1H       0.031950
     30 H181         1.5590     0.8250    -7.1590 h1         1 A1H       0.031950
     31 H191         3.7740     0.9330    -8.2060 h1         1 A1H       0.016200
     32 H192         2.6900    -0.0570    -9.2000 h1         1 A1H       0.016200
     33 H212         5.4760    -1.9990    -6.8760 h1         1 A1H       0.016200
     34 H211         5.4390    -0.2280    -6.8170 h1         1 A1H       0.016200
     35 H221         3.2750    -2.1050    -5.7990 h1         1 A1H       0.031950
     36 H222         4.3830    -1.1460    -4.8020 h1         1 A1H       0.031950
     37 H231         3.5820    -0.0200    -3.2430 ha         1 A1H       0.127000
@<TRIPOS>BOND
     1     1     2 2   
     2     2     3 1   
     3     2    11 1   
     4     3     4 1   
     5     3     9 2   
     6     4     5 1   
     7     4     8 1   
     8     5     6 2   
     9     5    24 1   
    10     6     7 1   
    11     6    25 1   
    12     7     8 2   
    13     9    10 1   
    14     9    26 1   
    15    10    11 1   
    16    10    27 1   
    17    11    12 1   
    18    12    13 ar  
    19    12    23 ar  
    20    13    14 ar  
    21    14    15 ar  
    22    14    28 1   
    23    15    16 ar  
    24    16    17 1   
    25    16    23 ar  
    26    17    18 1   
    27    17    22 1   
    28    18    19 1   
    29    18    29 1   
    30    18    30 1   
    31    19    20 1   
    32    19    31 1   
    33    19    32 1   
    34    20    21 1   
    35    21    22 1   
    36    21    33 1   
    37    21    34 1   
    38    22    35 1   
    39    22    36 1   
    40    23    37 1   
@<TRIPOS>SUBSTRUCTURE
     1 A1H         1 TEMP              0 ****  ****    0 ROOT
