@<TRIPOS>MOLECULE
molecule
   37    40     1     0     0
SMALL
bcc


@<TRIPOS>ATOM
      1 O01          0.0000     0.0000     0.0000 o          1 A1H      -0.520500
      2 C02          1.2180     0.0000     0.0000 c          1 A1H       0.708700
      3 C03          2.0550     0.0000     1.1450 cc         1 A1H      -0.197300
      4 N04          1.6260     0.0030     2.4850 na         1 A1H       0.227200
      5 C05          2.4300     0.0080     3.5820 cd         1 A1H      -0.310600
      6 C06          1.6030     0.0160     4.6530 cc         1 A1H       0.282200
      7 N07          0.3550     0.0160     4.1710 nc         1 A1H      -0.363000
      8 N08          0.4020     0.0090     2.8860 nd         1 A1H      -0.157800
      9 C09          3.3400    -0.0060     0.7210 cd         1 A1H       0.092000
     10 N10          3.3430    -0.0080    -0.6460 na         1 A1H      -0.548000
     11 N11          2.0150    -0.0050    -1.0880 n          1 A1H      -0.279700
     12 C12          1.5910    -0.0110    -2.4120 ca         1 A1H       0.626200
     13 N13          0.2930    -0.0060    -2.7060 nb         1 A1H      -0.752000
     14 C14         -0.1160    -0.0130    -3.9580 ca         1 A1H       0.746900
     15 N15          0.7290    -0.0230    -4.9680 nb         1 A1H      -0.806000
     16 C16          2.0440    -0.0280    -4.7580 ca         1 A1H       0.679200
     17 N17          2.9280    -0.0380    -5.8250 nh         1 A1H      -0.697300
     18 C18          2.2060    -0.0420    -7.1070 c3         1 A1H       0.133300
     19 C19          3.2160     0.0050    -8.2550 c3         1 A1H       0.134900
     20 O20          4.1170    -1.0990    -8.1380 os         1 A1H      -0.419600
     21 C21          4.8380    -1.1250    -6.9030 c3         1 A1H       0.134900
     22 C22          3.8430    -1.1850    -5.7400 c3         1 A1H       0.133300
     23 C23          2.5180    -0.0160    -3.4480 ca         1 A1H      -0.448600
     24 H051         3.5130     0.0060     3.5950 h4         1 A1H       0.174000
     25 H061         1.8940     0.0220     5.6970 h4         1 A1H       0.053100
     26 H091         4.0880    -0.5700     1.2660 h4         1 A1H       0.190000
     27 H101         4.1560    -0.0120    -1.2310 hn         1 A1H       0.498800
     28 H141        -1.1800    -0.0090    -4.1640 h5         1 A1H       0.073100
     29 H182         1.6140    -0.9460    -7.1840 h1         1 A1H       0.060450
     30 H181         1.5590     0.8250    -7.1590 h1         1 A1H       0.060450
     31 H191         3.7740     0.9330    -8.2060 h1         1 A1H       0.058200
     32 H192         2.6900    -0.0570    -9.2000 h1         1 A1H       0.058200
     33 H212         5.4760    -1.9990    -6.8760 h1         1 A1H       0.058200
     34 H211         5.4390    -0.2280    -6.8170 h1         1 A1H       0.058200
     35 H221         3.2750    -2.1050    -5.7990 h1         1 A1H       0.060450
     36 H222         4.3830    -1.1460    -4.8020 h1         1 A1H       0.060450
     37 H231         3.5820    -0.0200    -3.2430 ha         1 A1H       0.139000
@<TRIPOS>BOND
     1     6     5 2
     2     6     7 1
     3     5     4 1
     4     7     8 2
     5     9     3 2
     6     9    10 1
     7     4     8 1
     8     4     3 1
     9     3     2 1
    10    10    11 1
    11     2    11 1
    12     2     1 2
    13    11    12 1
    14    13    12 ar
    15    13    14 ar
    16    12    23 ar
    17    14    15 ar
    18    23    16 ar
    19    15    16 ar
    20    16    17 1
    21    17    18 1
    22    17    22 1
    23    18    19 1
    24    22    21 1
    25    19    20 1
    26    21    20 1
    27     5    24 1
    28     6    25 1
    29     9    26 1
    30    10    27 1
    31    14    28 1
    32    18    29 1
    33    18    30 1
    34    19    31 1
    35    19    32 1
    36    21    33 1
    37    21    34 1
    38    22    35 1
    39    22    36 1
    40    23    37 1
@<TRIPOS>SUBSTRUCTURE
     1 A1H         1 TEMP              0 ****  ****    0 ROOT
