@<TRIPOS>MOLECULE
A1K
   50    53     1     0     0
SMALL
bcc


@<TRIPOS>ATOM
      1 C1           0.0000     0.0000     0.0000 c3         1 A1K       0.197100
      2 N1           1.4660     0.0000     0.0000 nu         1 A1K      -0.486900
      3 O1           0.3500     1.0790     7.0030 os         1 A1K      -0.315900
      4 C2           2.1570     0.0000     1.1970 ca         1 A1K       0.641200
      5 N2           5.5650    -0.0010     2.2000 na         1 A1K       0.277900
      6 O2           4.2170     0.4650    10.3780 o          1 A1K      -0.649100
      7 C3           3.5600    -0.0000     1.2160 ca         1 A1K      -0.446400
      8 N3           3.4890    -0.0010     3.5710 nb         1 A1K      -0.752000
      9 O3           4.8220    -4.2110    11.0380 os         1 A1K      -0.406600
     10 C4           4.6080     0.0000     0.1940 cc         1 A1K      -0.046800
     11 C5           5.7840     0.0010     0.8440 cd         1 A1K      -0.290100
     12 N5           4.6650    -1.6750     9.9890 n          1 A1K      -0.148800
     13 C6           4.2220    -0.0000     2.4570 ca         1 A1K       0.333800
     14 N6           1.5090     0.0040     2.3570 nb         1 A1K      -0.784000
     15 C7           2.1690     0.0040     3.5090 ca         1 A1K       0.759900
     16 C8           2.1070    -0.1140     5.9130 ca         1 A1K      -0.001400
     17 C9           3.3300    -0.7720     5.9770 ca         1 A1K      -0.109000
     18 C10          3.9860    -0.8960     7.1820 ca         1 A1K      -0.116000
     19 C11          3.4240    -0.3600     8.3430 ca         1 A1K      -0.137600
     20 C12          2.1950     0.3040     8.2790 ca         1 A1K      -0.132000
     21 C13          1.5430     0.4290     7.0680 ca         1 A1K       0.101100
     22 C14         -0.1680     1.6100     8.2240 c3         1 A1K       0.246700
     23 C15          4.1250    -0.4920     9.6330 c          1 A1K       0.617700
     24 C16          5.2910    -1.8570    11.3080 c3         1 A1K      -0.009000
     25 C17          4.7040    -3.1190    11.9520 c3         1 A1K       0.198900
     26 C18          4.0900    -4.0370     9.8210 c3         1 A1K       0.198900
     27 C19          4.6460    -2.8230     9.0680 c3         1 A1K      -0.009000
     28 Cl1          4.3760     0.0010    -1.5260 cl         1 A1K      -0.008400
     29 H1          -0.3610     0.8860     0.5090 h1         1 A1K       0.010033
     30 H2          -0.3610    -0.8830     0.5120 h1         1 A1K       0.010033
     31 H3          -0.3610    -0.0020    -1.0210 h1         1 A1K       0.010033
     32 H4           1.9660    -0.0000    -0.8670 hn         1 A1K       0.303800
     33 H5           6.2830    -0.0010     2.8980 hn         1 A1K       0.120700
     34 H6           0.4460     0.0540     4.6670 hn         1 A1K       0.299800
     35 H7           6.7580     0.0020     0.3700 h4         1 A1K       0.152000
     36 H8           3.7680    -1.1890     5.0780 ha         1 A1K       0.156000
     37 H9           4.9380    -1.4100     7.2290 ha         1 A1K       0.115000
     38 H10          1.7560     0.7210     9.1770 ha         1 A1K       0.134000
     39 H11         -0.3150     0.8050     8.9340 h1         1 A1K       0.000033
     40 H12          0.5330     2.3280     8.6320 h1         1 A1K       0.000033
     41 H13         -1.1160     2.0990     8.0320 h1         1 A1K       0.000033
     42 H14          5.0800    -0.9980    11.9330 h1         1 A1K       0.044950
     43 H15          6.3620    -1.9740    11.1890 h1         1 A1K       0.044950
     44 H16          5.2500    -3.3470    12.8590 h1         1 A1K       0.014450
     45 H17          3.6590    -2.9520    12.1830 h1         1 A1K       0.014450
     46 H18          3.0440    -3.8730    10.0490 h1         1 A1K       0.014450
     47 H19          4.1970    -4.9230     9.2060 h1         1 A1K       0.014450
     48 H20          4.0100    -2.5980     8.2200 h1         1 A1K       0.044950
     49 H21          5.6540    -3.0340     8.7300 h1         1 A1K       0.044950
     50 N4           1.4460     0.0090     4.6920 nu         1 A1K      -0.269300
@<TRIPOS>BOND
     1     1     2 1   
     2     1    29 1   
     3     1    30 1   
     4     1    31 1   
     5     2     4 1   
     6     2    32 1   
     7     3    21 1   
     8     3    22 1   
     9     4     7 ar  
    10     4    14 ar  
    11     5    11 1   
    12     5    13 1   
    13     5    33 1   
    14     6    23 2   
    15     7    10 1   
    16     7    13 ar  
    17     8    13 ar  
    18     8    15 ar  
    19     9    25 1   
    20     9    26 1   
    21    10    11 2   
    22    10    28 1   
    23    11    35 1   
    24    12    23 1   
    25    12    24 1   
    26    12    27 1   
    27    14    15 ar  
    28    15    50 1   
    29    16    17 ar  
    30    16    21 ar  
    31    16    50 1   
    32    17    18 ar  
    33    17    36 1   
    34    18    19 ar  
    35    18    37 1   
    36    19    20 ar  
    37    19    23 1   
    38    20    21 ar  
    39    20    38 1   
    40    22    39 1   
    41    22    40 1   
    42    22    41 1   
    43    24    25 1   
    44    24    42 1   
    45    24    43 1   
    46    25    44 1   
    47    25    45 1   
    48    26    27 1   
    49    26    46 1   
    50    26    47 1   
    51    27    48 1   
    52    27    49 1   
    53    34    50 1   
@<TRIPOS>SUBSTRUCTURE
     1 A1K         1 TEMP              0 ****  ****    0 ROOT
