@<TRIPOS>MOLECULE
molecule
   50    53     1     0     0
SMALL
bcc


@<TRIPOS>ATOM
      1 C1           0.0000     0.0000     0.0000 c3         1 A1K       0.228100
      2 N1           1.4660     0.0000     0.0000 nu         1 A1K      -0.897900
      3 O1           0.3500     1.0790     7.0030 os         1 A1K      -0.336900
      4 C2           2.1570     0.0000     1.1970 ca         1 A1K       0.814200
      5 N2           5.5650    -0.0010     2.2000 na         1 A1K      -0.269100
      6 O2           4.2170     0.4650    10.3780 o          1 A1K      -0.607100
      7 C3           3.5600    -0.0000     1.2160 ca         1 A1K      -0.440400
      8 N3           3.4890    -0.0010     3.5710 nb         1 A1K      -0.863000
      9 O3           4.8220    -4.2110    11.0380 os         1 A1K      -0.421600
     10 C4           4.6080     0.0000     0.1940 cc         1 A1K      -0.000800
     11 C5           5.7840     0.0010     0.8440 cd         1 A1K      -0.110100
     12 N5           4.6650    -1.6750     9.9890 n          1 A1K      -0.490800
     13 C6           4.2220    -0.0000     2.4570 ca         1 A1K       0.561800
     14 N6           1.5090     0.0040     2.3570 nb         1 A1K      -0.877000
     15 C7           2.1690     0.0040     3.5090 ca         1 A1K       0.999900
     16 C8           2.1070    -0.1140     5.9130 ca         1 A1K       0.163600
     17 C9           3.3300    -0.7720     5.9770 ca         1 A1K      -0.119000
     18 C10          3.9860    -0.8960     7.1820 ca         1 A1K      -0.135000
     19 C11          3.4240    -0.3600     8.3430 ca         1 A1K      -0.133600
     20 C12          2.1950     0.3040     8.2790 ca         1 A1K      -0.151000
     21 C13          1.5430     0.4290     7.0680 ca         1 A1K       0.092100
     22 C14         -0.1680     1.6100     8.2240 c3         1 A1K       0.129700
     23 C15          4.1250    -0.4920     9.6330 c          1 A1K       0.681700
     24 C16          5.2910    -1.8570    11.3080 c3         1 A1K       0.061500
     25 C17          4.7040    -3.1190    11.9520 c3         1 A1K       0.120400
     26 C18          4.0900    -4.0370     9.8210 c3         1 A1K       0.120400
     27 C19          4.6460    -2.8230     9.0680 c3         1 A1K       0.061500
     28 Cl1          4.3760     0.0010    -1.5260 cl         1 A1K      -0.097400
     29 H1          -0.3610     0.8860     0.5090 h1         1 A1K       0.042367
     30 H2          -0.3610    -0.8830     0.5120 h1         1 A1K       0.042367
     31 H3          -0.3610    -0.0020    -1.0210 h1         1 A1K       0.042367
     32 H4           1.9660    -0.0000    -0.8670 hn         1 A1K       0.460800
     33 H5           6.2830    -0.0010     2.8980 hn         1 A1K       0.311700
     34 H6           0.4460     0.0540     4.6670 hn         1 A1K       0.478800
     35 H7           6.7580     0.0020     0.3700 h4         1 A1K       0.181000
     36 H8           3.7680    -1.1890     5.0780 ha         1 A1K       0.180000
     37 H9           4.9380    -1.4100     7.2290 ha         1 A1K       0.138000
     38 H10          1.7560     0.7210     9.1770 ha         1 A1K       0.154000
     39 H11         -0.3150     0.8050     8.9340 h1         1 A1K       0.044367
     40 H12          0.5330     2.3280     8.6320 h1         1 A1K       0.044367
     41 H13         -1.1160     2.0990     8.0320 h1         1 A1K       0.044367
     42 H14          5.0800    -0.9980    11.9330 h1         1 A1K       0.068200
     43 H15          6.3620    -1.9740    11.1890 h1         1 A1K       0.068200
     44 H16          5.2500    -3.3470    12.8590 h1         1 A1K       0.054700
     45 H17          3.6590    -2.9520    12.1830 h1         1 A1K       0.054700
     46 H18          3.0440    -3.8730    10.0490 h1         1 A1K       0.054700
     47 H19          4.1970    -4.9230     9.2060 h1         1 A1K       0.054700
     48 H20          4.0100    -2.5980     8.2200 h1         1 A1K       0.068200
     49 H21          5.6540    -3.0340     8.7300 h1         1 A1K       0.068200
     50 N4           1.4460     0.0090     4.6920 nu         1 A1K      -0.739300
@<TRIPOS>BOND
     1    28    10 1
     2     1     2 1
     3     2     4 1
     4    10    11 2
     5    10     7 1
     6    11     5 1
     7     4     7 ar
     8     4    14 ar
     9     7    13 ar
    10    14    15 ar
    11     5    13 1
    12    13     8 ar
    13    18    17 ar
    14    18    19 ar
    15    17    16 ar
    16    15     8 ar
    17    15    50 1
    18     6    23 2
    19    23    19 1
    20    23    12 1
    21    19    20 ar
    22    16    50 1
    23    16    21 ar
    24    25    24 1
    25    25     9 1
    26    12    24 1
    27    12    27 1
    28    20    21 ar
    29    21     3 1
    30    26     9 1
    31    26    27 1
    32     3    22 1
    33     1    29 1
    34     1    30 1
    35     1    31 1
    36     2    32 1
    37     5    33 1
    38    50    34 1
    39    11    35 1
    40    17    36 1
    41    18    37 1
    42    20    38 1
    43    22    39 1
    44    22    40 1
    45    22    41 1
    46    24    42 1
    47    24    43 1
    48    25    44 1
    49    25    45 1
    50    26    46 1
    51    26    47 1
    52    27    48 1
    53    27    49 1
@<TRIPOS>SUBSTRUCTURE
     1 A1K         1 TEMP              0 ****  ****    0 ROOT
