@<TRIPOS>MOLECULE
A1L
   72    73     1     0     0
SMALL
bcc


@<TRIPOS>ATOM
      1 C9         -0.4520    0.5500   -0.9360 c3        1 A1L      0.080100
      2 N6          0.7010   -0.4180   -0.7810 n4        1 A1L     -0.623800
      3 C8          1.6820    0.0640    0.2340 c         1 A1L      0.494100
      4 O3          1.5430    1.0970    0.8580 o         1 A1L     -0.259100
      5 N4          2.9330   -0.7750    0.5080 n4        1 A1L     -0.720800
      6 C7          3.7430   -0.3050    1.7740 c2        1 A1L      0.665100
      7 N5          3.2490    0.0270    2.8790 n2        1 A1L     -0.575100
      8 N3          5.2380   -0.3240    1.5700 n4        1 A1L     -0.744000
      9 C6          6.0380   -0.0330    2.8490 c3        1 A1L      0.134800
     10 C5          7.5550   -0.0820    2.6170 c3        1 A1L     -0.117400
     11 C4          8.2480    0.1500    3.9580 c3        1 A1L     -0.101400
     12 C2          9.7840    0.2630    3.9000 c3        1 A1L      0.056500
     13 N2         10.5070   -0.9650    3.4370 n4        1 A1L     -0.704800
     14 C3         10.0520   -2.3280    4.0260 c         1 A1L      0.574100
     15 O1          8.9200   -2.6500    3.7240 o         1 A1L     -0.452100
     16 C10        11.1400   -3.0820    4.8090 c3        1 A1L      0.119800
     17 N7         11.6720   -2.2680    5.8610 n2        1 A1L     -0.528200
     18 N8         11.6070   -2.6680    7.0830 n1        1 A1L      0.188000
     19 N9         11.7000   -2.8830    8.1830 n1        1 A1L      0.231000
     20 C1         10.2680    0.6400    5.3400 c         1 A1L      0.505100
     21 O2          9.8220    0.0360    6.3050 o         1 A1L     -0.360100
     22 N1         11.2640    1.7220    5.4710 n4        1 A1L     -0.594200
     23 C12        10.5970    3.0900    5.6000 c3        1 A1L      0.203600
     24 C13         9.9010    3.3420    6.8840 ca        1 A1L     -0.218800
     25 C20        10.4870    4.1960    7.8300 ca        1 A1L     -0.098250
     26 C21         9.8020    4.5180    9.0020 ca        1 A1L     -0.107500
     27 C22         8.5350    3.9860    9.2420 ca        1 A1L     -0.037500
     28 C23         7.9490    3.1290    8.3020 ca        1 A1L     -0.107500
     29 C24         8.6250    2.8120    7.1300 ca        1 A1L     -0.098250
     30 C11        12.2640    1.4710    6.6190 c3        1 A1L      0.203600
     31 C14        13.6290    1.8500    6.1960 ca        1 A1L     -0.218800
     32 C15        14.4950    0.8770    5.6680 ca        1 A1L     -0.098250
     33 C16        15.8180    1.2000    5.3860 ca        1 A1L     -0.107500
     34 C17        16.2910    2.4970    5.6250 ca        1 A1L     -0.037500
     35 C18        15.4310    3.4700    6.1420 ca        1 A1L     -0.107500
     36 C19        14.1060    3.1500    6.4260 ca        1 A1L     -0.098250
     37 H1         -1.1370    0.1030   -1.7270 hx        1 A1L      0.170700
     38 H2         -1.0100    0.6530    0.0370 hx        1 A1L      0.170700
     39 H3         -0.0770    1.5550   -1.2800 hx        1 A1L      0.170700
     40 H4          1.1590   -0.5190   -1.7100 hn        1 A1L      0.519800
     41 H5          2.6630   -1.7610    0.6840 hn        1 A1L      0.500800
     42 H6          2.2950    0.1150    3.1890 hn        1 A1L      0.586400
     43 H7          5.5270   -1.2540    1.2260 hn        1 A1L      0.492800
     44 H8          5.7360    0.9960    3.2100 hx        1 A1L      0.148200
     45 H9          5.7420   -0.8090    3.6170 hx        1 A1L      0.148200
     46 H10         7.8670    0.7090    1.8830 hc        1 A1L      0.090200
     47 H11         7.8550   -1.0880    2.2140 hc        1 A1L      0.090200
     48 H12         7.9650   -0.6710    4.6780 hc        1 A1L      0.115700
     49 H13         7.8850    1.1210    4.4030 hc        1 A1L      0.115700
     50 H14        10.0510    1.0930    3.1730 hx        1 A1L      0.122700
     51 H15        10.4120   -1.0220    2.4150 hn        1 A1L      0.473800
     52 H16        11.9740   -3.2910    4.0670 h1        1 A1L      0.144200
     53 H17        10.6750   -4.0780    5.0910 h1        1 A1L      0.144200
     54 H19         9.8810    3.1710    4.7340 hx        1 A1L      0.109950
     55 H20        11.4410    3.8350    5.4640 hx        1 A1L      0.109950
     56 H21        11.4810    4.6380    7.6480 ha        1 A1L      0.121500
     57 H22        10.2640    5.2010    9.7400 ha        1 A1L      0.179250
     58 H23         7.9930    4.2420   10.1710 ha        1 A1L      0.191500
     59 H24         6.9480    2.7120    8.4980 ha        1 A1L      0.179250
     60 H25         8.1610    2.1430    6.3920 ha        1 A1L      0.121500
     61 H26        12.2030    0.3770    6.8810 hx        1 A1L      0.109950
     62 H27        11.9100    2.0800    7.5030 hx        1 A1L      0.109950
     63 H28        14.1440   -0.1550    5.5210 ha        1 A1L      0.121500
     64 H29        16.5070    0.4310    4.9960 ha        1 A1L      0.179250
     65 H30        17.3490    2.7460    5.4180 ha        1 A1L      0.191500
     66 H31        15.8100    4.4880    6.3440 ha        1 A1L      0.179250
     67 H32        13.4450    3.9150    6.8650 ha        1 A1L      0.121500
     68 H62         0.3090   -1.3390   -0.4970 hn        1 A1L      0.519800
     69 H42         3.5170   -0.7510   -0.3420 hn        1 A1L      0.500800
     70 H321        5.4860    0.3980    0.8710 hn        1 A1L      0.492800
     71 H221       11.5110   -0.8560    3.6500 hn        1 A1L      0.473800
     72 H111       11.8270    1.7560    4.6060 hn        1 A1L      0.445800
@<TRIPOS>BOND
     1    1    2 1
     2    1   37 1
     3    1   38 1
     4    1   39 1
     5    2    3 1
     6    2   40 1
     7    2   68 1
     8    3    4 2
     9    3    5 1
    10    5    6 1
    11    5   41 1
    12    5   69 1
    13    6    7 2
    14    6    8 1
    15    7   42 1
    16    8    9 1
    17    8   43 1
    18    8   70 1
    19    9   10 1
    20    9   44 1
    21    9   45 1
    22   10   11 1
    23   10   46 1
    24   10   47 1
    25   11   12 1
    26   11   48 1
    27   11   49 1
    28   12   13 1
    29   12   20 1
    30   12   50 1
    31   13   14 1
    32   13   51 1
    33   13   71 1
    34   14   15 2
    35   14   16 1
    36   16   17 1
    37   16   52 1
    38   16   53 1
    39   17   18 1
    40   18   19 3
    41   20   21 2
    42   20   22 1
    43   22   23 1
    44   22   30 1
    45   22   72 1
    46   23   24 1
    47   23   54 1
    48   23   55 1
    49   24   25 ar
    50   24   29 ar
    51   25   26 ar
    52   25   56 1
    53   26   27 ar
    54   26   57 1
    55   27   28 ar
    56   27   58 1
    57   28   29 ar
    58   28   59 1
    59   29   60 1
    60   30   31 1
    61   30   61 1
    62   30   62 1
    63   31   32 ar
    64   31   36 ar
    65   32   33 ar
    66   32   63 1
    67   33   34 ar
    68   33   64 1
    69   34   35 ar
    70   34   65 1
    71   35   36 ar
    72   35   66 1
    73   36   67 1
@<TRIPOS>SUBSTRUCTURE
     1 A1L         1 TEMP              0 ****  ****    0 ROOT
