@<TRIPOS>MOLECULE
A1N
   53    57     1     0     0
SMALL
bcc


@<TRIPOS>ATOM
      1 C1           0.0000     0.0000     0.0000 c3         1 A1N      -0.038600
      2 N1           3.0480     0.0000     0.0000 nh         1 A1N      -0.450300
      3 O1           1.2260     2.0720     0.3570 os         1 A1N      -0.405600
      4 C2           0.9300     0.8060     0.9090 c3         1 A1N       0.195600
      5 N2           6.2890    -2.4400     0.4840 nb         1 A1N      -0.651000
      6 O2           9.1010    -6.6790    -0.7200 os         1 A1N      -0.265900
      7 C3           2.1960     0.0000     1.1990 c3         1 A1N       0.099800
      8 N3           5.3780    -0.3670     0.0590 nb         1 A1N      -0.680000
      9 C4           3.4810     1.3740    -0.2880 c3         1 A1N       0.099800
     10 N4           3.9180    -5.0130     1.4890 nc         1 A1N      -0.619100
     11 C5           2.2640     2.2490    -0.5820 c3         1 A1N       0.195600
     12 N5           4.1440    -6.3880     1.6030 na         1 A1N       0.422900
     13 C6           1.7760     1.9890    -2.0100 c3         1 A1N      -0.038600
     14 C7           4.1380    -0.8400     0.1670 ca         1 A1N       0.519200
     15 C8           3.9520    -2.1920     0.4470 ca         1 A1N      -0.343600
     16 C9           5.0810    -2.9930     0.6070 ca         1 A1N       0.451000
     17 C10          6.4210    -1.1570     0.2170 ca         1 A1N       0.654900
     18 C11          4.9430    -4.4380     0.9070 cd         1 A1N       0.307900
     19 C12          5.3720    -6.6920     1.0660 ca         1 A1N      -0.228200
     20 C13          6.0870    -7.8780     0.9150 ca         1 A1N      -0.084000
     21 C14          7.3180    -7.8630     0.3250 ca         1 A1N      -0.089000
     22 C15          7.8740    -6.6710    -0.1350 ca         1 A1N       0.113100
     23 C16          9.5660    -5.4440    -1.2690 cx         1 A1N       0.072800
     24 C17         10.1510    -4.4530    -0.2600 c3         1 A1N       0.020900
     25 C18         10.1890    -5.4800    -2.6660 cx         1 A1N      -0.081400
     26 C19          8.8020    -4.8680    -2.4630 cx         1 A1N      -0.081400
     27 C20          7.1850    -5.4830     0.0010 ca         1 A1N      -0.134000
     28 C21          5.9260    -5.4830     0.6050 ca         1 A1N      -0.178900
     29 H1           0.5800    -0.4700    -0.7850 hc         1 A1N       0.014533
     30 H2          -0.5030    -0.7620     0.5830 hc         1 A1N       0.014533
     31 H3          -0.7360     0.6610    -0.4410 hc         1 A1N       0.014533
     32 H4           0.4200     0.9700     1.8510 h1         1 A1N       0.031700
     33 H5           2.7320     0.4540     2.0240 h1         1 A1N       0.033950
     34 H6           1.9260    -1.0180     1.4510 h1         1 A1N       0.033950
     35 H7           4.1370     1.3710    -1.1510 h1         1 A1N       0.033950
     36 H8           4.0100     1.7720     0.5700 h1         1 A1N       0.033950
     37 H10          2.5840     3.2820    -0.5220 h1         1 A1N       0.031700
     38 H11          2.3990     2.5340    -2.7090 hc         1 A1N       0.014533
     39 H12          1.8340     0.9290    -2.2250 hc         1 A1N       0.014533
     40 H13          0.7490     2.3220    -2.1070 hc         1 A1N       0.014533
     41 H14          2.9570    -2.6090     0.5410 ha         1 A1N       0.146000
     42 H15          7.4160    -0.7390     0.1230 h5         1 A1N      -0.002900
     43 H16          5.6660    -8.8120     1.2680 ha         1 A1N       0.105000
     44 H17          7.8680    -8.7900     0.2120 ha         1 A1N       0.115000
     45 H18         11.2310    -4.4450    -0.3470 hc         1 A1N       0.015367
     46 H19          9.8730    -4.7520     0.7430 hc         1 A1N       0.015367
     47 H20          9.7650    -3.4620    -0.4620 hc         1 A1N       0.015367
     48 H21         10.9910    -4.7730    -2.8380 hc         1 A1N       0.053950
     49 H22         10.2050    -6.4510    -3.1450 hc         1 A1N       0.053950
     50 H23          7.9710    -5.4650    -2.8180 hc         1 A1N       0.053950
     51 H24          8.7570    -3.7870    -2.5110 hc         1 A1N       0.053950
     52 H25          7.6700    -4.5450    -0.2410 ha         1 A1N       0.149000
     53 H9           3.5120    -7.0470     2.0120 hn         1 A1N       0.152700
@<TRIPOS>BOND
     1     1     4 1   
     2     1    29 1   
     3     1    30 1   
     4     1    31 1   
     5     2     7 1   
     6     2     9 1   
     7     2    14 1   
     8     3     4 1   
     9     3    11 1   
    10     4     7 1   
    11     4    32 1   
    12     5    16 ar  
    13     5    17 ar  
    14     6    22 1   
    15     6    23 1   
    16     7    33 1   
    17     7    34 1   
    18     8    14 ar  
    19     8    17 ar  
    20     9    11 1   
    21     9    35 1   
    22     9    36 1   
    23    10    12 1   
    24    10    18 2   
    25    11    13 1   
    26    11    37 1   
    27    12    19 1   
    28    12    53 1   
    29    13    38 1   
    30    13    39 1   
    31    13    40 1   
    32    14    15 ar  
    33    15    16 ar  
    34    15    41 1   
    35    16    18 1   
    36    17    42 1   
    37    18    28 1   
    38    19    20 ar  
    39    19    28 ar  
    40    20    21 ar  
    41    20    43 1   
    42    21    22 ar  
    43    21    44 1   
    44    22    27 ar  
    45    23    24 1   
    46    23    25 1   
    47    23    26 1   
    48    24    45 1   
    49    24    46 1   
    50    24    47 1   
    51    25    26 1   
    52    25    48 1   
    53    25    49 1   
    54    26    50 1   
    55    26    51 1   
    56    27    28 ar  
    57    27    52 1   
@<TRIPOS>SUBSTRUCTURE
     1 A1N         1 TEMP              0 ****  ****    0 ROOT
