@<TRIPOS>MOLECULE
A1O
   50    52     1     0     0
SMALL
bcc


@<TRIPOS>ATOM
      1 C1           0.0000     0.0000     0.0000 ca         1 A1O      -0.076400
      2 C2           1.3890     0.0000     0.0000 ca         1 A1O      -0.113300
      3 C3          -0.6940     0.0000     1.2020 ca         1 A1O      -0.125000
      4 C4          -0.0020     0.0000     2.3980 ca         1 A1O      -0.124000
      5 C5           1.3860     0.0010     2.3980 ca         1 A1O       0.031600
      6 C6          -2.9940    -0.8300    -1.0300 c3         1 A1O      -0.055400
      7 C7           2.0800     0.0000     1.1940 ca         1 A1O      -0.102000
      8 C9           2.1380    -0.0000    -1.3080 c3         1 A1O       0.040900
      9 C10          2.1110    -5.0770     7.0890 ca         1 A1O      -0.097000
     10 C11          0.8220    -5.5770     7.1180 ca         1 A1O      -0.080300
     11 C12          1.3550    -0.8070    -2.3450 c3         1 A1O      -0.094400
     12 C13         -0.0850    -0.3710    -2.3530 c          1 A1O       0.612500
     13 C14         -4.4650    -0.4080    -1.0600 c3         1 A1O       0.011900
     14 C15          1.9230    -2.6790     4.1790 c3         1 A1O       0.064700
     15 C16          1.5350    -3.7020     5.2140 ca         1 A1O      -0.100300
     16 C17          0.2450    -4.1980     5.2470 ca         1 A1O      -0.079000
     17 C18          2.4660    -4.1380     6.1380 ca         1 A1O      -0.079000
     18 C19         -0.1110    -5.1380     6.1970 ca         1 A1O      -0.097000
     19 N1           2.0870     0.0000     3.6080 nu         1 A1O      -0.411500
     20 N2          -0.6990    -0.0060    -1.2150 n          1 A1O       0.023000
     21 O1           0.2300    -0.7770     4.9750 o          1 A1O      -0.579800
     22 O2          -0.7020    -0.3550    -3.3970 o          1 A1O      -0.672500
     23 O3           2.5280    -0.7230     5.8900 o          1 A1O      -0.579800
     24 S1           1.6230    -1.0140     4.8330 s6         1 A1O       0.952900
     25 H1          -1.7770    -0.0000     1.2030 ha         1 A1O       0.126000
     26 H2          -0.5430     0.0010     3.3370 ha         1 A1O       0.173000
     27 H3          -2.8060    -1.5390    -1.8260 hc         1 A1O       0.023700
     28 H4          -2.7710    -1.2900    -0.0750 hc         1 A1O       0.023700
     29 H5           3.1640     0.0000     1.1930 ha         1 A1O       0.111000
     30 H6          -2.3340     0.8470    -2.2020 h1         1 A1O       0.041200
     31 H7          -2.2910     1.1180    -0.4550 h1         1 A1O       0.041200
     32 H8           2.2530     1.0190    -1.6560 hc         1 A1O       0.025200
     33 H9           3.1130    -0.4500    -1.1630 hc         1 A1O       0.025200
     34 H10          2.8410    -5.4200     7.8120 ha         1 A1O       0.109000
     35 H11          1.7850    -0.6410    -3.3260 hc         1 A1O       0.042200
     36 H12          1.4100    -1.8590    -2.0960 hc         1 A1O       0.042200
     37 H13         -5.0940    -1.2810    -0.9400 hc         1 A1O       0.003033
     38 H14         -4.6570     0.2890    -0.2530 hc         1 A1O       0.003033
     39 H15         -4.6840     0.0680    -2.0080 hc         1 A1O       0.003033
     40 H16          1.3310    -2.8280     3.2840 h1         1 A1O       0.070700
     41 H17          2.9740    -2.7880     3.9390 h1         1 A1O       0.070700
     42 H18         -0.4860    -3.8540     4.5250 ha         1 A1O       0.112000
     43 H19          3.4760    -3.7460     6.1160 ha         1 A1O       0.112000
     44 H20         -1.1210    -5.5280     6.2210 ha         1 A1O       0.109000
     45 H21          2.8460     0.6380     3.7470 hn         1 A1O       0.350800
     46 H22          1.2000    -7.3640     8.2110 hc         1 A1O       0.008700
     47 H23          0.3310    -6.1180     9.1180 hc         1 A1O       0.008700
     48 H24         -0.5090    -7.0560     7.8750 hc         1 A1O       0.008700
     49 C8          -2.1060     0.3980    -1.2430 c3         1 A1O       0.024000
     50 C20          0.4340    -6.6010     8.1530 c3         1 A1O       0.063200
@<TRIPOS>BOND
     1     1     2 ar  
     2     1     3 ar  
     3     1    20 1   
     4     2     7 ar  
     5     2     8 1   
     6     3     4 ar  
     7     3    25 1   
     8     4     5 ar  
     9     4    26 1   
    10     5     7 ar  
    11     5    19 1   
    12     6    13 1   
    13     6    27 1   
    14     6    28 1   
    15     6    49 1   
    16     7    29 1   
    17     8    11 1   
    18     8    32 1   
    19     8    33 1   
    20     9    10 ar  
    21     9    17 ar  
    22     9    34 1   
    23    10    18 ar  
    24    10    50 1   
    25    11    12 1   
    26    11    35 1   
    27    11    36 1   
    28    12    20 1   
    29    12    22 2   
    30    13    37 1   
    31    13    38 1   
    32    13    39 1   
    33    14    15 1   
    34    14    24 1   
    35    14    40 1   
    36    14    41 1   
    37    15    16 ar  
    38    15    17 ar  
    39    16    18 ar  
    40    16    42 1   
    41    17    43 1   
    42    18    44 1   
    43    19    24 1   
    44    19    45 1   
    45    20    49 1   
    46    21    24 2   
    47    23    24 2   
    48    30    49 1   
    49    31    49 1   
    50    46    50 1   
    51    47    50 1   
    52    48    50 1   
@<TRIPOS>SUBSTRUCTURE
     1 A1O         1 TEMP              0 ****  ****    0 ROOT
