@<TRIPOS>MOLECULE
molecule
   57    60     1     0     0
SMALL
bcc


@<TRIPOS>ATOM
      1 N1           0.0000     0.0000     0.0000 nb         1 A1R      -0.812000
      2 C2           1.3560     0.0000     0.0000 ca         1 A1R       0.657900
      3 N3           2.2020     0.0000     1.0520 nb         1 A1R      -0.703000
      4 C4           1.5180     0.0010     2.2050 ca         1 A1R       0.441800
      5 C5           0.1410     0.0020     2.3630 ca         1 A1R      -0.201200
      6 C6          -0.6250     0.0020     1.2020 ca         1 A1R       0.751200
      7 N6          -2.0290     0.0010     1.2680 nv         1 A1R      -1.002500
      8 N7          -0.1960     0.0040     3.6930 nc         1 A1R      -0.576100
      9 C8           0.9550     0.0050     4.3320 cd         1 A1R       0.451700
     10 N9           2.0240     0.0030     3.4750 na         1 A1R      -0.253000
     11 C1'          3.4360     0.0030     3.8570 c3         1 A1R       0.265800
     12 C2'          4.0100     1.3880     4.1110 c3         1 A1R       0.093100
     13 O2'          4.4270     2.0130     2.9130 oh         1 A1R      -0.583800
     14 C3'          5.1590     1.0710     5.0470 c3         1 A1R       0.082100
     15 O3'          6.2560     0.5530     4.2950 oh         1 A1R      -0.604800
     16 O4'          3.6060    -0.7330     5.0830 os         1 A1R      -0.417600
     17 C4'          4.5790    -0.0480     5.9060 c3         1 A1R       0.113100
     18 C5'          3.8750     0.4650     7.1540 c3         1 A1R       0.195400
     19 O5'          4.8070     1.1770     7.9500 os         1 A1R      -0.585200
     20 PA           4.2970     1.8260     9.3410 p5         1 A1R       1.371800
     21 O1A          5.3280     2.5680    10.1420 o          1 A1R      -0.808000
     22 O2A          3.5830     0.5990    10.1170 o          1 A1R      -0.808000
     23 O3A          3.0530     2.7220     8.8300 os         1 A1R      -0.728800
     24 PB           1.9520     3.5760     9.6520 p5         1 A1R       1.376800
     25 O1B          2.8340     4.7310    10.3620 o          1 A1R      -0.812000
     26 O2B          1.1210     2.7590    10.5990 o          1 A1R      -0.812000
     27 O5N          1.1100     4.3560     8.5100 os         1 A1R      -0.564200
     28 C5N          1.7830     5.1600     7.5580 c3         1 A1R       0.219400
     29 N4N          1.6270     5.9510     5.2050 n7         1 A1R      -0.806200
     30 C1N          1.5830     5.1830     3.9480 c3         1 A1R       0.117800
     31 O2N         -0.7110     4.5010     3.9400 oh         1 A1R      -0.596800
     32 C2N          0.6120     4.0420     4.1940 c3         1 A1R       0.079100
     33 O3N         -0.2610     3.0450     6.2210 oh         1 A1R      -0.561800
     34 C3N          0.8300     3.7540     5.6690 c3         1 A1R       0.155100
     35 C4N          0.9830     5.1520     6.2610 c3         1 A1R       0.103500
     36 H2           1.8240    -0.0010    -0.9770 h5         1 A1R       0.033100
     37 HN61        -2.5690     0.1600     0.4400 hn         1 A1R       0.442800
     38 HN62        -2.4890    -0.2000     2.1340 hn         1 A1R       0.442800
     39 H8           1.0470     0.0040     5.4120 h5         1 A1R       0.110800
     40 H1'          4.0150    -0.4780     3.0770 h2         1 A1R       0.102700
     41 H2'          3.2770     2.0020     4.6210 h1         1 A1R       0.066700
     42 HO2'         4.9500     2.7700     3.1200 ho         1 A1R       0.404000
     43 H3'          5.4380     1.9310     5.6440 h1         1 A1R       0.097700
     44 HO3'         7.0450     1.0100     4.5350 ho         1 A1R       0.402000
     45 H4'          5.3670    -0.7370     6.1830 h1         1 A1R       0.087700
     46 H5'1         3.0650     1.1240     6.8680 h1         1 A1R       0.050200
     47 H5'2         3.4810    -0.3710     7.7180 h1         1 A1R       0.050200
     48 H5N1         1.8640     6.1740     7.9290 h1         1 A1R       0.028700
     49 H5N2         2.7730     4.7580     7.3780 h1         1 A1R       0.028700
     50 H1N2         2.5660     4.7920     3.7160 h1         1 A1R       0.030200
     51 HO2N        -0.8900     4.4490     3.0160 ho         1 A1R       0.393000
     52 H2N          0.8610     3.1810     3.5860 h1         1 A1R       0.042700
     53 HO3N        -1.0660     3.4830     5.9980 ho         1 A1R       0.407000
     54 H3N          1.7490     3.1950     5.8030 h1         1 A1R       0.087700
     55 H4N         -0.0030     5.5580     6.4510 h1         1 A1R       0.078700
     56 HN4N         2.5800     6.1280     5.4540 hn         1 A1R       0.345800
     57 H1N1         1.2230     5.8100     3.1410 h1         1 A1R       0.030200
@<TRIPOS>BOND
     1     1     2 ar
     2     1     6 ar
     3     2     3 ar
     4     2    36 1
     5     3     4 ar
     6     4     5 ar
     7     4    10 1
     8     5     6 ar
     9     5     8 1
    10     6     7 1
    11     7    37 1
    12     7    38 1
    13     8     9 2
    14     9    10 1
    15     9    39 1
    16    10    11 1
    17    11    16 1
    18    11    12 1
    19    11    40 1
    20    12    13 1
    21    12    14 1
    22    12    41 1
    23    13    42 1
    24    14    17 1
    25    14    15 1
    26    14    43 1
    27    15    44 1
    28    16    17 1
    29    17    18 1
    30    17    45 1
    31    18    19 1
    32    18    46 1
    33    18    47 1
    34    19    20 1
    35    20    23 1
    36    20    21 1
    37    20    22 1
    38    23    24 1
    39    24    26 1
    40    24    25 1
    41    24    27 1
    42    27    28 1
    43    28    35 1
    44    28    48 1
    45    28    49 1
    46    29    35 1
    47    29    30 1
    48    29    56 1
    49    30    32 1
    50    30    57 1
    51    30    50 1
    52    31    32 1
    53    31    51 1
    54    32    34 1
    55    32    52 1
    56    33    34 1
    57    33    53 1
    58    34    35 1
    59    34    54 1
    60    35    55 1
@<TRIPOS>SUBSTRUCTURE
     1 A1R         1 TEMP              0 ****  ****    0 ROOT
