@<TRIPOS>MOLECULE
A1T
   97   102     1     0     0
SMALL
bcc


@<TRIPOS>ATOM
      1 O25          0.0000     0.0000     0.0000 o          1 A1T      -0.646100
      2 C23          1.2300     0.0000     0.0000 c          1 A1T       0.498600
      3 C26          1.8810     0.0000     1.3200 ca         1 A1T       0.304800
      4 C30          1.1090     0.0160     2.4590 ca         1 A1T      -0.132300
      5 C34          1.7740     0.0160     3.6800 ca         1 A1T      -0.066000
      6 C36          3.1640    -0.0020     3.7070 ca         1 A1T      -0.171600
      7 C38          3.9060    -0.0030     4.9970 c3         1 A1T       0.032900
      8 C40          4.2320     1.4020     5.5260 c3         1 A1T      -0.021400
      9 C43          5.0580     1.3830     6.8160 c3         1 A1T      -0.023400
     10 C46          5.3780     2.8010     7.2890 c3         1 A1T      -0.026400
     11 C48          6.2300     2.7880     8.5490 c3         1 A1T       0.008900
     12 C33          3.8370    -0.0170     2.4960 ca         1 A1T       0.371200
     13 N29          3.2250    -0.0170     1.2900 nb         1 A1T      -0.504000
     14 N22          2.0360    -0.0170    -1.1500 n          1 A1T      -0.083800
     15 C24          3.4720    -0.0160    -1.0180 c3         1 A1T      -0.198300
     16 C28          4.0840     1.2270    -1.6660 c3         1 A1T      -0.049900
     17 C32          5.6120     1.1830    -1.6200 c3         1 A1T       0.162300
     18 N35          6.1250    -0.0400    -2.2530 n3         1 A1T      -0.513600
     19 C37          7.5880    -0.0440    -2.2470 c3         1 A1T       0.102500
     20 C39          8.1560     1.1270    -2.9940 ca         1 A1T       0.365600
     21 C42          9.1970     1.8380    -2.4320 ca         1 A1T      -0.211300
     22 C45          9.7000     2.9190    -3.1500 ca         1 A1T      -0.067000
     23 C47          9.1500     3.2420    -4.3850 ca         1 A1T      -0.219300
     24 C44          8.1060     2.4610    -4.8540 ca         1 A1T       0.394200
     25 N41          7.5910     1.4050    -4.1860 nb         1 A1T      -0.549000
     26 C31          5.6050    -1.2420    -1.5850 c3         1 A1T       0.162300
     27 C27          4.0770    -1.2790    -1.6290 c3         1 A1T      -0.049900
     28 C21          1.5150    -0.0380    -2.5200 c3         1 A1T       0.085300
     29 C20          1.3150     1.3460    -3.0660 ca         1 A1T      -0.112300
     30 C18          2.3510     1.9740    -3.7460 ca         1 A1T      -0.096000
     31 C16          2.1650     3.2590    -4.2540 ca         1 A1T      -0.095500
     32 C19          0.0930     1.9850    -2.8870 ca         1 A1T      -0.096000
     33 C17         -0.0940     3.2710    -3.3950 ca         1 A1T      -0.095500
     34 C15          0.9420     3.9080    -4.0780 cp         1 A1T      -0.043000
     35 C14          0.7490     5.2410    -4.6050 cp         1 A1T      -0.017000
     36 C11          1.8330     6.1140    -4.7090 ca         1 A1T      -0.101000
     37 C7           1.6470     7.4000    -5.2150 ca         1 A1T      -0.068000
     38 C12         -0.5210     5.6570    -5.0060 ca         1 A1T      -0.101000
     39 C8          -0.7060     6.9430    -5.5120 ca         1 A1T      -0.068000
     40 C4           0.3770     7.8150    -5.6170 ca         1 A1T      -0.150600
     41 C2           0.1820     9.1690    -6.1500 c          1 A1T       0.630700
     42 O1           0.3210     9.2990    -7.3650 o          1 A1T      -0.621100
     43 N3          -0.1280    10.1920    -5.2510 n          1 A1T      -0.169800
     44 C6          -0.3450    11.6020    -5.6020 c3         1 A1T       0.049500
     45 C10         -1.6950    12.0830    -5.0760 c3         1 A1T      -0.038900
     46 C13         -1.8280    11.8160    -3.5770 c3         1 A1T      -0.021400
     47 C9          -1.5480    10.3490    -3.2500 c3         1 A1T      -0.038900
     48 C5          -0.2060     9.9000    -3.8200 c3         1 A1T       0.049500
     49 H30          0.0270     0.0300     2.4070 ha         1 A1T       0.149000
     50 H34          1.2120     0.0280     4.6060 ha         1 A1T       0.114000
     51 H381         4.8340    -0.5440     4.8610 hc         1 A1T       0.020700
     52 H382         3.3090    -0.5200     5.7380 hc         1 A1T       0.020700
     53 H401         3.3030     1.9270     5.7150 hc         1 A1T       0.014700
     54 H402         4.7870     1.9400     4.7660 hc         1 A1T       0.014700
     55 H431         5.9840     0.8510     6.6370 hc         1 A1T       0.013200
     56 H432         4.4980     0.8690     7.5890 hc         1 A1T       0.013200
     57 H461         5.9130     3.3230     6.5050 hc         1 A1T       0.011700
     58 H462         4.4510     3.3230     7.4940 hc         1 A1T       0.011700
     59 H481         7.1660     2.2810     8.3470 hc         1 A1T       0.001700
     60 H482         5.7010     2.2680     9.3380 hc         1 A1T       0.001700
     61 H483         6.4310     3.8060     8.8590 hc         1 A1T       0.001700
     62 H33          4.9200    -0.0310     2.5160 h4         1 A1T      -0.016900
     63 H24          3.7200    -0.0010     0.0370 h1         1 A1T       0.178700
     64 H281         3.7630     1.2810    -2.6990 hc         1 A1T       0.030200
     65 H282         3.7400     2.1070    -1.1350 hc         1 A1T       0.030200
     66 H321         6.0070     2.0450    -2.1440 h1         1 A1T       0.004200
     67 H322         5.9360     1.2090    -0.5870 h1         1 A1T       0.004200
     68 H371         7.9390    -0.9590    -2.7080 h1         1 A1T       0.012700
     69 H372         7.9360    -0.0100    -1.2220 h1         1 A1T       0.012700
     70 H42          9.6080     1.5650    -1.4670 ha         1 A1T       0.119000
     71 H45         10.5180     3.5050    -2.7480 ha         1 A1T       0.104000
     72 H47          9.5250     4.0780    -4.9620 ha         1 A1T       0.117000
     73 H44          7.6770     2.7120    -5.8160 h4         1 A1T      -0.025900
     74 H311         5.9940    -2.1210    -2.0850 h1         1 A1T       0.004200
     75 H312         5.9290    -1.2420    -0.5520 h1         1 A1T       0.004200
     76 H271         3.7550    -1.3620    -2.6600 hc         1 A1T       0.030200
     77 H272         3.7280    -2.1410    -1.0730 hc         1 A1T       0.030200
     78 H211         0.5660    -0.5600    -2.5280 h1         1 A1T       0.038200
     79 H212         2.2140    -0.5690    -3.1550 h1         1 A1T       0.038200
     80 H18          3.2990     1.4680    -3.8810 ha         1 A1T       0.134500
     81 H16          2.9690     3.7540    -4.7840 ha         1 A1T       0.110000
     82 H19         -0.7090     1.4870    -2.3560 ha         1 A1T       0.134500
     83 H17         -1.0430     3.7750    -3.2590 ha         1 A1T       0.110000
     84 H11          2.8190     5.7910    -4.3970 ha         1 A1T       0.114500
     85 H7           2.4890     8.0770    -5.2960 ha         1 A1T       0.108500
     86 H12         -1.3630     4.9800    -4.9250 ha         1 A1T       0.114500
     87 H8          -1.6930     7.2650    -5.8230 ha         1 A1T       0.108500
     88 H61         -0.3240    11.7090    -6.6800 h1         1 A1T       0.026450
     89 H62          0.4430    12.2030    -5.1630 h1         1 A1T       0.026450
     90 H101        -2.4860    11.5590    -5.6010 hc         1 A1T       0.019700
     91 H102        -1.7870    13.1470    -5.2560 hc         1 A1T       0.019700
     92 H131        -1.1210    12.4390    -3.0430 hc         1 A1T       0.014200
     93 H132        -2.8350    12.0630    -3.2620 hc         1 A1T       0.014200
     94 H91         -2.3350     9.7360    -3.6740 hc         1 A1T       0.019700
     95 H92         -1.5350    10.2230    -2.1740 hc         1 A1T       0.019700
     96 H51          0.5920    10.4240    -3.3070 h1         1 A1T       0.026450
     97 H52         -0.0940     8.8330    -3.6680 h1         1 A1T       0.026450
@<TRIPOS>BOND
     1     1     2 2   
     2     2     3 1   
     3     2    14 1   
     4     3     4 ar  
     5     3    13 ar  
     6     4     5 ar  
     7     4    49 1   
     8     5     6 ar  
     9     5    50 1   
    10     6     7 1   
    11     6    12 ar  
    12     7     8 1   
    13     7    51 1   
    14     7    52 1   
    15     8     9 1   
    16     8    53 1   
    17     8    54 1   
    18     9    10 1   
    19     9    55 1   
    20     9    56 1   
    21    10    11 1   
    22    10    57 1   
    23    10    58 1   
    24    11    59 1   
    25    11    60 1   
    26    11    61 1   
    27    12    13 ar  
    28    12    62 1   
    29    14    15 1   
    30    14    28 1   
    31    15    16 1   
    32    15    27 1   
    33    15    63 1   
    34    16    17 1   
    35    16    64 1   
    36    16    65 1   
    37    17    18 1   
    38    17    66 1   
    39    17    67 1   
    40    18    19 1   
    41    18    26 1   
    42    19    20 1   
    43    19    68 1   
    44    19    69 1   
    45    20    21 ar  
    46    20    25 ar  
    47    21    22 ar  
    48    21    70 1   
    49    22    23 ar  
    50    22    71 1   
    51    23    24 ar  
    52    23    72 1   
    53    24    25 ar  
    54    24    73 1   
    55    26    27 1   
    56    26    74 1   
    57    26    75 1   
    58    27    76 1   
    59    27    77 1   
    60    28    29 1   
    61    28    78 1   
    62    28    79 1   
    63    29    30 ar  
    64    29    32 ar  
    65    30    31 ar  
    66    30    80 1   
    67    31    34 ar  
    68    31    81 1   
    69    32    33 ar  
    70    32    82 1   
    71    33    34 ar  
    72    33    83 1   
    73    34    35 1   
    74    35    36 ar  
    75    35    38 ar  
    76    36    37 ar  
    77    36    84 1   
    78    37    40 ar  
    79    37    85 1   
    80    38    39 ar  
    81    38    86 1   
    82    39    40 ar  
    83    39    87 1   
    84    40    41 1   
    85    41    42 2   
    86    41    43 1   
    87    43    44 1   
    88    43    48 1   
    89    44    45 1   
    90    44    88 1   
    91    44    89 1   
    92    45    46 1   
    93    45    90 1   
    94    45    91 1   
    95    46    47 1   
    96    46    92 1   
    97    46    93 1   
    98    47    48 1   
    99    47    94 1   
   100    47    95 1   
   101    48    96 1   
   102    48    97 1   
@<TRIPOS>SUBSTRUCTURE
     1 A1T         1 TEMP              0 ****  ****    0 ROOT
