@<TRIPOS>MOLECULE
molecule
   17    17     1     0     0
SMALL
bcc


@<TRIPOS>ATOM
      1 CAB          0.0000     0.0000     0.0000 ca         1 A1U       0.331900
      2 CAC          1.3820     0.0000     0.0000 ca         1 A1U       0.269300
      3 CAE          1.3910    -0.0010     2.2880 ca         1 A1U       0.302300
      4 CAF         -0.0000     0.0050     2.2920 ca         1 A1U       0.525300
      5 CAG          2.1330     0.0010    -1.3070 c3         1 A1U      -0.134400
      6 CAH          2.1500    -0.0010     3.5910 c3         1 A1U      -0.129400
      7 NAA         -0.6630     0.0050     1.1450 nb         1 A1U      -0.736000
      8 NAD          2.0470     0.0000     1.1430 nb         1 A1U      -0.630000
      9 OAI         -0.6770     0.0040     3.4690 oh         1 A1U      -0.600300
     10 H1          -0.5410    -0.0000    -0.9380 h4         1 A1U       0.032100
     11 H2           1.8710    -0.8840    -1.8750 hc         1 A1U       0.053367
     12 H3           1.8700     0.8850    -1.8740 hc         1 A1U       0.053367
     13 H4           3.1980     0.0010    -1.1110 hc         1 A1U       0.053367
     14 H5           1.8860    -0.8830     4.1620 hc         1 A1U       0.056367
     15 H6           3.2140    -0.0050     3.3900 hc         1 A1U       0.056367
     16 H7           1.8930     0.8860     4.1580 hc         1 A1U       0.056367
     17 H9          -1.6040     0.0270     3.2980 ho         1 A1U       0.440000
@<TRIPOS>BOND
     1     6     3 1
     2     3     8 ar
     3     3     4 ar
     4     9     4 1
     5     8     2 ar
     6     4     7 ar
     7     2     5 1
     8     2     1 ar
     9     7     1 ar
    10     1    10 1
    11     5    11 1
    12     5    12 1
    13     5    13 1
    14     6    14 1
    15     6    15 1
    16     6    16 1
    17     9    17 1
@<TRIPOS>SUBSTRUCTURE
     1 A1U         1 TEMP              0 ****  ****    0 ROOT
