@<TRIPOS>MOLECULE
molecule
   45    49     1     0     0
SMALL
bcc


@<TRIPOS>ATOM
      1 C10          0.0000     0.0000     0.0000 cc         1 A1V       0.330300
      2 C13         -0.7910     0.0010    -1.2500 ca         1 A1V       0.369300
      3 C15         -2.2240     1.1110    -2.6910 ca         1 A1V       0.421300
      4 C17         -1.5290    -1.1110    -3.2680 ca         1 A1V      -0.062000
      5 C21          0.9670    -4.3170    -1.9840 cd         1 A1V       0.356800
      6 C22          1.4370    -4.0740    -0.7290 cc         1 A1V      -0.188400
      7 C24          1.2690    -5.5560    -2.7190 c          1 A1V       0.795100
      8 N01          7.0090     1.3820    -0.6230 nz         1 A1V      -0.811600
      9 C03          5.5000     0.0020     0.6890 cc         1 A1V       0.299700
     10 N04          4.2520     0.0020     0.3740 nd         1 A1V      -0.576000
     11 C05          3.3760     0.0000     1.3710 cd         1 A1V       0.398300
     12 C06          3.9410    -0.0010     2.5980 cc         1 A1V      -0.125400
     13 S07          5.6900     0.0000     2.3870 ss         1 A1V      -0.185300
     14 C08          1.9140     0.0000     1.1580 cd         1 A1V       0.366400
     15 N09          1.3230     0.0000     0.0000 nc         1 A1V      -0.580000
     16 C11         -0.5770     0.0030     1.2200 cd         1 A1V      -0.076400
     17 S12          0.7000     0.0070     2.4330 ss         1 A1V      -0.239300
     18 N14         -1.5050     1.0680    -1.5760 nb         1 A1V      -0.635000
     19 C16         -2.2540     0.0260    -3.5690 ca         1 A1V      -0.243300
     20 C18         -0.7760    -1.1300    -2.0900 ca         1 A1V      -0.198800
     21 C19          0.0250    -2.3180    -1.7310 cc         1 A1V       0.489900
     22 N20          0.2080    -3.3550    -2.4910 nd         1 A1V      -0.598000
     23 S23          0.8780    -2.5440    -0.2100 ss         1 A1V      -0.330300
     24 O25          0.7740    -5.7430    -3.9580 o          1 A1V      -0.819800
     25 O26          1.9650    -6.4110    -2.2060 o          1 A1V      -0.819800
     26 C27         -2.9990     2.3290    -3.0110 cd         1 A1V       0.358400
     27 N28         -3.0510     3.3970    -2.2770 nc         1 A1V      -0.564000
     28 C29         -3.8050     4.3830    -2.7410 cc         1 A1V       0.343800
     29 C30         -4.4200     4.1240    -3.9300 cd         1 A1V      -0.163400
     30 S31         -3.9880     2.5530    -4.4490 ss         1 A1V      -0.313300
     31 C32         -3.9720     5.6570    -2.0230 c          1 A1V       0.798100
     32 O33         -3.3390     5.8590    -0.8510 o          1 A1V      -0.821300
     33 O34         -4.6800     6.5290    -2.4880 o          1 A1V      -0.821300
     34 H1          -1.5380    -1.9660    -3.9340 ha         1 A1V       0.177000
     35 H2           2.0680    -4.7410    -0.1530 h4         1 A1V       0.184000
     36 H3           7.7740     1.3790    -1.2690 hn         1 A1V       0.456133
     37 H4           7.2750     1.8740     0.2070 hn         1 A1V       0.456133
     38 H6           6.3230    -0.5100    -1.2060 hx         1 A1V       0.126200
     39 H7           7.4870    -0.5160     0.1260 hx         1 A1V       0.126200
     40 H8           3.4140    -0.0620     3.5420 h4         1 A1V       0.210000
     41 H9          -1.6420     0.0050     1.4180 h4         1 A1V       0.208000
     42 H10         -2.8460     0.0730    -4.4750 ha         1 A1V       0.147000
     43 H12         -5.0730     4.8050    -4.4620 h4         1 A1V       0.191000
     44 H013         6.2290     1.8560    -1.0320 hn         1 A1V       0.456133
     45 C02          6.6350    -0.0010    -0.3020 c3         1 A1V       0.103500
@<TRIPOS>BOND
     1    32    31 1
     2    33    31 1
     3    31    28 1
     4    28    29 2
     5    28    27 1
     6    29    30 1
     7    27    26 2
     8    30    26 1
     9    26     3 1
    10     3    19 ar
    11     3    18 ar
    12    19     4 ar
    13    18     2 ar
    14     4    20 ar
    15     2    20 ar
    16     2     1 1
    17    20    21 1
    18    16     1 2
    19    16    17 1
    20     1    15 1
    21    21    23 1
    22    21    22 2
    23    23     6 1
    24    17    14 1
    25    22     5 1
    26    15    14 2
    27    14    11 1
    28     6     5 2
    29     5     7 1
    30    25     7 1
    31     7    24 1
    32    11    12 2
    33    11    10 1
    34    12    13 1
    35    10     9 2
    36     9    13 1
    37     9    45 1
    38     8    45 1
    39     4    34 1
    40     6    35 1
    41     8    36 1
    42     8    37 1
    43    45    38 1
    44    45    39 1
    45    12    40 1
    46    16    41 1
    47    19    42 1
    48    29    43 1
    49    44     8 1
@<TRIPOS>SUBSTRUCTURE
     1 A1V         1 TEMP              0 ****  ****    0 ROOT
