@<TRIPOS>MOLECULE
molecule
   37    36     1     0     0
SMALL
bcc


@<TRIPOS>ATOM
      1 OAE          0.0000     0.0000     0.0000 o          1 A1X      -0.490000
      2 CAD          1.2080     0.0000     0.0000 c          1 A1X       0.588100
      3 OAC          1.8790     0.0060    -1.1620 os         1 A1X      -0.447900
      4 CAB          1.0900     0.0130    -2.3810 c3         1 A1X       0.145400
      5 CAA          2.0220     0.0200    -3.5940 c3         1 A1X      -0.096100
      6 CAF          1.9620     0.0000     1.3050 c3         1 A1X       0.128100
      7 OAJ          1.0360     0.1160     2.3890 oh         1 A1X      -0.567800
      8 CAG          2.7450    -1.3080     1.4410 c3         1 A1X      -0.171400
      9 CAH          3.5930    -1.2570     2.6860 c          1 A1X       0.654100
     10 OAI          3.5740    -0.2730     3.3950 o          1 A1X      -0.469100
     11 NAK          4.3740    -2.3060     3.0120 n          1 A1X      -0.439200
     12 NAL          4.3970    -3.4140     2.2140 nz         1 A1X      -0.538600
     13 CAN          5.1990    -2.2570     4.2220 c3         1 A1X       0.094000
     14 CAO          4.4030    -2.8100     5.4050 c3         1 A1X      -0.108700
     15 CAP          4.1100    -4.2950     5.1740 c3         1 A1X      -0.094600
     16 CAM          5.2160    -2.6440     6.6900 c3         1 A1X      -0.094600
     17 HAB          0.4650    -0.8710    -2.4110 h1         1 A1X       0.058700
     18 HABA         0.4640     0.8980    -2.4010 h1         1 A1X       0.058700
     19 HAA          2.5950    -0.8990    -3.6140 hc         1 A1X       0.053033
     20 HAAA         1.4340     0.0990    -4.5000 hc         1 A1X       0.053033
     21 HAAB         2.6960     0.8650    -3.5260 hc         1 A1X       0.053033
     22 HAF          2.6490     0.8370     1.3260 h1         1 A1X       0.083700
     23 HOAJ         0.9170     1.0270     2.6030 ho         1 A1X       0.439000
     24 HAG          2.0520    -2.1380     1.5100 hc         1 A1X       0.081700
     25 HAGA         3.3820    -1.4400     0.5750 hc         1 A1X       0.081700
     26 HNAL         4.6220    -3.1460     1.2760 hn         1 A1X       0.461800
     27 HNAA         5.0880    -4.0550     2.5520 hn         1 A1X       0.461800
     28 HAN          5.4810    -1.2310     4.4250 h1         1 A1X       0.094200
     29 HANA         6.0910    -2.8540     4.0760 h1         1 A1X       0.094200
     30 HAO          3.4690    -2.2690     5.4970 hc         1 A1X       0.087700
     31 HAP          3.2500    -4.3960     4.5240 hc         1 A1X       0.047033
     32 HAPA         4.9700    -4.7650     4.7110 hc         1 A1X       0.047033
     33 HAPB         3.9040    -4.7740     6.1230 hc         1 A1X       0.047033
     34 HAM          5.4520    -1.5970     6.8350 hc         1 A1X       0.047033
     35 HAMA         6.1340    -3.2140     6.6120 hc         1 A1X       0.047033
     36 HAMB         4.6380    -3.0050     7.5320 hc         1 A1X       0.047033
     37 HAL3         3.4940    -3.8460     2.2170 hn         1 A1X       0.461800
@<TRIPOS>BOND
     1     1     2 2
     2     2     3 1
     3     2     6 1
     4     3     4 1
     5     4     5 1
     6     6     7 1
     7     6     8 1
     8     8     9 1
     9     9    10 2
    10     9    11 1
    11    11    12 1
    12    11    13 1
    13    13    14 1
    14    14    15 1
    15    14    16 1
    16     4    17 1
    17     4    18 1
    18     5    19 1
    19     5    20 1
    20     5    21 1
    21     6    22 1
    22     7    23 1
    23     8    24 1
    24     8    25 1
    25    12    26 1
    26    12    27 1
    27    13    28 1
    28    13    29 1
    29    14    30 1
    30    15    31 1
    31    15    32 1
    32    15    33 1
    33    16    34 1
    34    16    35 1
    35    16    36 1
    36    37    12 1
@<TRIPOS>SUBSTRUCTURE
     1 A1X         1 TEMP              0 ****  ****    0 ROOT
