@<TRIPOS>MOLECULE
A1X
   37    36     1     0     0
SMALL
bcc


@<TRIPOS>ATOM
      1 OAE          0.0000     0.0000     0.0000 o          1 A1X      -0.523000
      2 CAD          1.2080     0.0000     0.0000 c          1 A1X       0.639100
      3 OAC          1.8790     0.0060    -1.1620 os         1 A1X      -0.432900
      4 CAB          1.0900     0.0130    -2.3810 c3         1 A1X       0.229400
      5 CAA          2.0220     0.0200    -3.5940 c3         1 A1X      -0.001100
      6 CAF          1.9620     0.0000     1.3050 c3         1 A1X       0.172100
      7 OAJ          1.0360     0.1160     2.3890 oh         1 A1X      -0.556800
      8 CAG          2.7450    -1.3080     1.4410 c3         1 A1X      -0.113400
      9 CAH          3.5930    -1.2570     2.6860 c          1 A1X       0.599100
     10 OAI          3.5740    -0.2730     3.3950 o          1 A1X      -0.485100
     11 NAK          4.3740    -2.3060     3.0120 n          1 A1X      -0.352200
     12 NAL          4.3970    -3.4140     2.2140 nz         1 A1X       0.265400
     13 CAN          5.1990    -2.2570     4.2220 c3         1 A1X       0.081000
     14 CAO          4.4030    -2.8100     5.4050 c3         1 A1X      -0.087700
     15 CAP          4.1100    -4.2950     5.1740 c3         1 A1X       0.006400
     16 CAM          5.2160    -2.6440     6.6900 c3         1 A1X       0.006400
     17 HAB          0.4650    -0.8710    -2.4110 h1         1 A1X       0.016200
     18 HABA         0.4640     0.8980    -2.4010 h1         1 A1X       0.016200
     19 HAA          2.5950    -0.8990    -3.6140 hc         1 A1X       0.014700
     20 HAAA         1.4340     0.0990    -4.5000 hc         1 A1X       0.014700
     21 HAAB         2.6960     0.8650    -3.5260 hc         1 A1X       0.014700
     22 HAF          2.6490     0.8370     1.3260 h1         1 A1X       0.040700
     23 HOAJ         0.9170     1.0270     2.6030 ho         1 A1X       0.424000
     24 HAG          2.0520    -2.1380     1.5100 hc         1 A1X       0.045200
     25 HAGA         3.3820    -1.4400     0.5750 hc         1 A1X       0.045200
     26 HNAL         4.6220    -3.1460     1.2760 hn         1 A1X       0.221133
     27 HNAA         5.0880    -4.0550     2.5520 hn         1 A1X       0.221133
     28 HAN          5.4810    -1.2310     4.4250 h1         1 A1X       0.058700
     29 HANA         6.0910    -2.8540     4.0760 h1         1 A1X       0.058700
     30 HAO          3.4690    -2.2690     5.4970 hc         1 A1X       0.059700
     31 HAP          3.2500    -4.3960     4.5240 hc         1 A1X       0.013033
     32 HAPA         4.9700    -4.7650     4.7110 hc         1 A1X       0.013033
     33 HAPB         3.9040    -4.7740     6.1230 hc         1 A1X       0.013033
     34 HAM          5.4520    -1.5970     6.8350 hc         1 A1X       0.013033
     35 HAMA         6.1340    -3.2140     6.6120 hc         1 A1X       0.013033
     36 HAMB         4.6380    -3.0050     7.5320 hc         1 A1X       0.013033
     37 HAL3         3.4940    -3.8460     2.2170 hn         1 A1X       0.221133
@<TRIPOS>BOND
     1     1     2 2   
     2     2     3 1   
     3     2     6 1   
     4     3     4 1   
     5     4     5 1   
     6     4    17 1   
     7     4    18 1   
     8     5    19 1   
     9     5    20 1   
    10     5    21 1   
    11     6     7 1   
    12     6     8 1   
    13     6    22 1   
    14     7    23 1   
    15     8     9 1   
    16     8    24 1   
    17     8    25 1   
    18     9    10 2   
    19     9    11 1   
    20    11    12 1   
    21    11    13 1   
    22    12    26 1   
    23    12    27 1   
    24    12    37 1   
    25    13    14 1   
    26    13    28 1   
    27    13    29 1   
    28    14    15 1   
    29    14    16 1   
    30    14    30 1   
    31    15    31 1   
    32    15    32 1   
    33    15    33 1   
    34    16    34 1   
    35    16    35 1   
    36    16    36 1   
@<TRIPOS>SUBSTRUCTURE
     1 A1X         1 TEMP              0 ****  ****    0 ROOT
