@<TRIPOS>MOLECULE
A1Y
   31    32     1     0     0
SMALL
bcc


@<TRIPOS>ATOM
      1 N3           0.0000     0.0000     0.0000 nh         1 A1Y      -0.518300
      2 C4          -0.6800     0.9110    -3.3800 ca         1 A1Y       0.408600
      3 N2          -1.7980    -3.0530    -0.0480 n1         1 A1Y      -0.379800
      4 C7          -1.5820    -2.2070    -0.7750 cg         1 A1Y       0.251800
      5 C6          -1.2860    -1.1470    -1.6910 ca         1 A1Y      -0.075300
      6 C9           1.9750     0.0000     1.4450 c3         1 A1Y       0.216400
      7 C8           1.4700     0.0000     0.0000 c3         1 A1Y       0.111300
      8 C2          -1.7710    -1.1820    -3.0020 ca         1 A1Y      -0.021300
      9 C3          -1.4570    -0.1330    -3.8480 ca         1 A1Y      -0.228300
     10 N1          -0.2270     0.9230    -2.1410 nb         1 A1Y      -0.608000
     11 C5          -0.4970    -0.0540    -1.2900 ca         1 A1Y       0.518200
     12 O1           1.4340     1.1310     2.1340 os         1 A1Y      -0.409600
     13 C10          0.0050     1.1630     2.1540 c3         1 A1Y       0.216400
     14 C11         -0.5210     1.1730     0.7160 c3         1 A1Y       0.111300
     15 H7           3.0520     0.1170     1.4390 h1         1 A1Y       0.014200
     16 H8           1.7220    -0.9480     1.9050 h1         1 A1Y       0.014200
     17 H5           1.8200    -0.9120    -0.4670 h1         1 A1Y       0.026200
     18 H6           1.8200     0.8510    -0.5710 h1         1 A1Y       0.026200
     19 H3          -3.5430    -2.3600    -2.9210 hc         1 A1Y       0.019033
     20 H2          -2.8350    -2.2070    -4.5350 hc         1 A1Y       0.019033
     21 H1          -2.0790    -3.2630    -3.3340 hc         1 A1Y       0.019033
     22 H4          -1.8190    -0.1230    -4.8690 ha         1 A1Y       0.125000
     23 H10         -0.3550     0.3430     2.7640 h1         1 A1Y       0.014200
     24 H9          -0.3180     2.1010     2.5890 h1         1 A1Y       0.014200
     25 H11         -1.5970     1.0840     0.8000 h1         1 A1Y       0.026200
     26 H12         -0.2790     2.0650     0.1510 h1         1 A1Y       0.026200
     27 H14          0.2690     2.7760    -3.7740 hc         1 A1Y       0.017700
     28 H13         -1.2530     2.5270    -4.6420 hc         1 A1Y       0.017700
     29 H15          0.2100     1.6740    -5.1570 hc         1 A1Y       0.017700
     30 C12         -0.3400     2.0520    -4.3030 c3         1 A1Y      -0.045400
     31 C1          -2.6160    -2.3340    -3.4820 c3         1 A1Y       0.055200
@<TRIPOS>BOND
     1     1     7 1   
     2     1    11 1   
     3     1    14 1   
     4     2     9 ar  
     5     2    10 ar  
     6     2    30 1   
     7     3     4 3   
     8     4     5 1   
     9     5     8 ar  
    10     5    11 ar  
    11     6     7 1   
    12     6    12 1   
    13     6    15 1   
    14     6    16 1   
    15     7    17 1   
    16     7    18 1   
    17     8     9 ar  
    18     8    31 1   
    19     9    22 1   
    20    10    11 ar  
    21    12    13 1   
    22    13    14 1   
    23    13    23 1   
    24    13    24 1   
    25    14    25 1   
    26    14    26 1   
    27    19    31 1   
    28    20    31 1   
    29    21    31 1   
    30    27    30 1   
    31    28    30 1   
    32    29    30 1   
@<TRIPOS>SUBSTRUCTURE
     1 A1Y         1 TEMP              0 ****  ****    0 ROOT
