@<TRIPOS>MOLECULE
molecule
   31    32     1     0     0
SMALL
bcc


@<TRIPOS>ATOM
      1 N3           0.0000     0.0000     0.0000 nh         1 A1Y      -0.721300
      2 C4          -0.6800     0.9110    -3.3800 ca         1 A1Y       0.462600
      3 N2          -1.7980    -3.0530    -0.0480 n1         1 A1Y      -0.365800
      4 C7          -1.5820    -2.2070    -0.7750 cg         1 A1Y       0.260800
      5 C6          -1.2860    -1.1470    -1.6910 ca         1 A1Y      -0.126300
      6 C9           1.9750     0.0000     1.4450 c3         1 A1Y       0.139400
      7 C8           1.4700     0.0000     0.0000 c3         1 A1Y       0.130800
      8 C2          -1.7710    -1.1820    -3.0020 ca         1 A1Y      -0.005300
      9 C3          -1.4570    -0.1330    -3.8480 ca         1 A1Y      -0.264300
     10 N1          -0.2270     0.9230    -2.1410 nb         1 A1Y      -0.736000
     11 C5          -0.4970    -0.0540    -1.2900 ca         1 A1Y       0.644200
     12 O1           1.4340     1.1310     2.1340 os         1 A1Y      -0.421600
     13 C10          0.0050     1.1630     2.1540 c3         1 A1Y       0.139400
     14 C11         -0.5210     1.1730     0.7160 c3         1 A1Y       0.130800
     15 H7           3.0520     0.1170     1.4390 h1         1 A1Y       0.056200
     16 H8           1.7220    -0.9480     1.9050 h1         1 A1Y       0.056200
     17 H5           1.8200    -0.9120    -0.4670 h1         1 A1Y       0.055950
     18 H6           1.8200     0.8510    -0.5710 h1         1 A1Y       0.055950
     19 H3          -3.5430    -2.3600    -2.9210 hc         1 A1Y       0.056367
     20 H2          -2.8350    -2.2070    -4.5350 hc         1 A1Y       0.056367
     21 H1          -2.0790    -3.2630    -3.3340 hc         1 A1Y       0.056367
     22 H4          -1.8190    -0.1230    -4.8690 ha         1 A1Y       0.147000
     23 H10         -0.3550     0.3430     2.7640 h1         1 A1Y       0.056200
     24 H9          -0.3180     2.1010     2.5890 h1         1 A1Y       0.056200
     25 H11         -1.5970     1.0840     0.8000 h1         1 A1Y       0.055950
     26 H12         -0.2790     2.0650     0.1510 h1         1 A1Y       0.055950
     27 H14          0.2690     2.7760    -3.7740 hc         1 A1Y       0.056700
     28 H13         -1.2530     2.5270    -4.6420 hc         1 A1Y       0.056700
     29 H15          0.2100     1.6740    -5.1570 hc         1 A1Y       0.056700
     30 C12         -0.3400     2.0520    -4.3030 c3         1 A1Y      -0.147400
     31 C1          -2.6160    -2.3340    -3.4820 c3         1 A1Y      -0.055800
@<TRIPOS>BOND
     1    12     6 1
     2    12    13 1
     3     6     7 1
     4    13    14 1
     5     7     1 1
     6    14     1 1
     7     1    11 1
     8    11    10 ar
     9    11     5 ar
    10    10     2 ar
    11     3     4 3
    12     4     5 1
    13     5     8 ar
    14     2    30 1
    15     2     9 ar
    16     8     9 ar
    17     8    31 1
    18     6    15 1
    19     6    16 1
    20     7    17 1
    21     7    18 1
    22    31    19 1
    23    31    20 1
    24    31    21 1
    25     9    22 1
    26    13    23 1
    27    13    24 1
    28    14    25 1
    29    14    26 1
    30    30    27 1
    31    30    28 1
    32    30    29 1
@<TRIPOS>SUBSTRUCTURE
     1 A1Y         1 TEMP              0 ****  ****    0 ROOT
