@<TRIPOS>MOLECULE
A1Z
   31    32     1     0     0
SMALL
bcc


@<TRIPOS>ATOM
      1 O01          0.0000     0.0000     0.0000 oh         1 A1Z      -0.439100
      2 C02          1.3570     0.0000     0.0000 ca         1 A1Z       0.075800
      3 C03          2.0670     0.0000     1.2070 ca         1 A1Z       0.319800
      4 C04          1.3320    -0.0000     2.4880 c          1 A1Z       0.439600
      5 N05          2.0080    -0.0000     3.6540 ns         1 A1Z      -0.112900
      6 C06          1.2790     0.0010     4.9240 c3         1 A1Z      -0.079000
      7 C07          2.2600     0.0000     6.0670 c          1 A1Z       0.971600
      8 O08          1.8160    -0.0000     7.3340 o          1 A1Z      -0.890800
      9 O09          3.4480    -0.0010     5.8440 o          1 A1Z      -0.890800
     10 O10          0.1160     0.0000     2.4900 o          1 A1Z      -0.680100
     11 N11          3.3960    -0.0010     1.2120 nb         1 A1Z      -0.525000
     12 C12          4.0920    -0.0020     0.1000 ca         1 A1Z       0.372200
     13 C13          3.4560    -0.0020    -1.1460 cp         1 A1Z      -0.138300
     14 C21          2.0620    -0.0060    -1.1980 ca         1 A1Z      -0.165000
     15 C14          4.2540    -0.0010    -2.3960 cp         1 A1Z      -0.001000
     16 C15          5.6460    -0.0020    -2.3370 ca         1 A1Z      -0.098000
     17 C16          6.3840    -0.0030    -3.5040 ca         1 A1Z      -0.026600
     18 Cl           8.1190    -0.0020    -3.4340 cl         1 A1Z      -0.036400
     19 C18          5.7420    -0.0040    -4.7310 ca         1 A1Z      -0.110000
     20 C19          4.3610    -0.0030    -4.7950 ca         1 A1Z      -0.090000
     21 C20          3.6140    -0.0070    -3.6340 ca         1 A1Z      -0.104000
     22 H011        -0.3140     0.7400    -0.4930 ho         1 A1Z       0.390000
     23 H051         3.0090    -0.0010     3.6520 hn         1 A1Z       0.210500
     24 H061         0.6570     0.8850     4.9820 h1         1 A1Z       0.024700
     25 H062         0.6560    -0.8840     4.9830 h1         1 A1Z       0.024700
     26 H121         5.1750    -0.0010     0.1470 h4         1 A1Z      -0.012900
     27 H211         1.5420    -0.0060    -2.1480 ha         1 A1Z       0.118000
     28 H151         6.1490     0.0610    -1.3800 ha         1 A1Z       0.130000
     29 H181         6.3240    -0.0020    -5.6450 ha         1 A1Z       0.109000
     30 H191         3.8640    -0.0050    -5.7570 ha         1 A1Z       0.101000
     31 H201         2.5310    -0.0060    -3.6850 ha         1 A1Z       0.113000
@<TRIPOS>BOND
     1     1     2 1   
     2     1    22 1   
     3     2     3 ar  
     4     2    14 ar  
     5     3     4 1   
     6     3    11 ar  
     7     4     5 1   
     8     4    10 2   
     9     5     6 1   
    10     5    23 1   
    11     6     7 1   
    12     6    24 1   
    13     6    25 1   
    14     7     8 1   
    15     7     9 1   
    16    11    12 ar  
    17    12    13 ar  
    18    12    26 1   
    19    13    14 ar  
    20    13    15 1   
    21    14    27 1   
    22    15    16 ar  
    23    15    21 ar  
    24    16    17 ar  
    25    16    28 1   
    26    17    18 1   
    27    17    19 ar  
    28    19    20 ar  
    29    19    29 1   
    30    20    21 ar  
    31    20    30 1   
    32    21    31 1   
@<TRIPOS>SUBSTRUCTURE
     1 A1Z         1 TEMP              0 ****  ****    0 ROOT
