@<TRIPOS>MOLECULE
molecule
   31    32     1     0     0
SMALL
bcc


@<TRIPOS>ATOM
      1 O01          0.0000     0.0000     0.0000 oh         1 A1Z      -0.466100
      2 C02          1.3570     0.0000     0.0000 ca         1 A1Z       0.041800
      3 C03          2.0670     0.0000     1.2070 ca         1 A1Z       0.384800
      4 C04          1.3320    -0.0000     2.4880 c          1 A1Z       0.542600
      5 N05          2.0080    -0.0000     3.6540 ns         1 A1Z      -0.522900
      6 C06          1.2790     0.0010     4.9240 c3         1 A1Z      -0.005000
      7 C07          2.2600     0.0000     6.0670 c          1 A1Z       0.882600
      8 O08          1.8160    -0.0000     7.3340 o          1 A1Z      -0.843800
      9 O09          3.4480    -0.0010     5.8440 o          1 A1Z      -0.843800
     10 O10          0.1160     0.0000     2.4900 o          1 A1Z      -0.623100
     11 N11          3.3960    -0.0010     1.2120 nb         1 A1Z      -0.643000
     12 C12          4.0920    -0.0020     0.1000 ca         1 A1Z       0.407200
     13 C13          3.4560    -0.0020    -1.1460 cp         1 A1Z      -0.151300
     14 C21          2.0620    -0.0060    -1.1980 ca         1 A1Z      -0.162000
     15 C14          4.2540    -0.0010    -2.3960 cp         1 A1Z      -0.011000
     16 C15          5.6460    -0.0020    -2.3370 ca         1 A1Z      -0.114000
     17 C16          6.3840    -0.0030    -3.5040 ca         1 A1Z       0.032400
     18 Cl           8.1190    -0.0020    -3.4340 cl         1 A1Z      -0.114400
     19 C18          5.7420    -0.0040    -4.7310 ca         1 A1Z      -0.129000
     20 C19          4.3610    -0.0030    -4.7950 ca         1 A1Z      -0.120000
     21 C20          3.6140    -0.0070    -3.6340 ca         1 A1Z      -0.123000
     22 H011        -0.3140     0.7400    -0.4930 ho         1 A1Z       0.412000
     23 H051         3.0090    -0.0010     3.6520 hn         1 A1Z       0.350500
     24 H061         0.6570     0.8850     4.9820 h1         1 A1Z       0.046700
     25 H062         0.6560    -0.8840     4.9830 h1         1 A1Z       0.046700
     26 H121         5.1750    -0.0010     0.1470 h4         1 A1Z       0.026100
     27 H211         1.5420    -0.0060    -2.1480 ha         1 A1Z       0.138000
     28 H151         6.1490     0.0610    -1.3800 ha         1 A1Z       0.153000
     29 H181         6.3240    -0.0020    -5.6450 ha         1 A1Z       0.138000
     30 H191         3.8640    -0.0050    -5.7570 ha         1 A1Z       0.132000
     31 H201         2.5310    -0.0060    -3.6850 ha         1 A1Z       0.137000
@<TRIPOS>BOND
     1     9     7 1
     2     8     7 1
     3     7     6 1
     4    10     4 2
     5     6     5 1
     6     4     5 1
     7     4     3 1
     8    11     3 ar
     9    11    12 ar
    10     3     2 ar
    11    12    13 ar
    12     2     1 1
    13     2    14 ar
    14    13    14 ar
    15    13    15 1
    16    21    15 ar
    17    21    20 ar
    18    15    16 ar
    19    20    19 ar
    20    16    17 ar
    21    19    17 ar
    22    17    18 1
    23     1    22 1
    24     5    23 1
    25     6    24 1
    26     6    25 1
    27    12    26 1
    28    14    27 1
    29    16    28 1
    30    19    29 1
    31    20    30 1
    32    21    31 1
@<TRIPOS>SUBSTRUCTURE
     1 A1Z         1 TEMP              0 ****  ****    0 ROOT
