@<TRIPOS>MOLECULE
A20
   16    15     1     0     0
SMALL
bcc


@<TRIPOS>ATOM
      1 OAD         0.3070    0.2890    0.4960 o         1 A20     -0.752867
      2 SAH         1.6300    0.0330    0.0590 s6        1 A20      1.426800
      3 OAB         2.6110    0.2400    1.0590 o         1 A20     -0.752867
      4 OAC         1.7740   -1.1910   -0.6400 o         1 A20     -0.752867
      5 CAG         1.9580    1.2720   -1.1790 c3        1 A20     -0.287600
      6 CAF         1.8530    2.6630   -0.6290 c3        1 A20     -0.075400
      7 CAE         2.1370    3.7160   -1.6980 c3        1 A20      0.141800
      8 NAA         2.0630    5.0970   -1.2730 n3        1 A20     -0.909800
      9 H1          1.2380    1.1380   -2.0200 h1        1 A20      0.062700
     10 H2          2.9800    1.1010   -1.5950 h1        1 A20      0.062700
     11 H3          2.5810    2.7780    0.2200 hc        1 A20      0.046700
     12 H4          0.8220    2.8150   -0.2090 hc        1 A20      0.046700
     13 H5          1.4070    3.5790   -2.5450 h1        1 A20      0.040700
     14 H6          3.1700    3.5420   -2.1140 h1        1 A20      0.040700
     15 H7          1.1470    5.2950   -0.9160 hn        1 A20      0.330800
     16 H8          2.7180    5.2610   -0.5320 hn        1 A20      0.330800
@<TRIPOS>BOND
     1    1    2 1   
     2    2    3 1   
     3    2    4 1   
     4    2    5 1   
     5    5    6 1   
     6    5    9 1   
     7    5   10 1   
     8    6    7 1   
     9    6   11 1   
    10    6   12 1   
    11    7    8 1   
    12    7   13 1   
    13    7   14 1   
    14    8   15 1   
    15    8   16 1   
@<TRIPOS>SUBSTRUCTURE
     1 A20         1 TEMP              0 ****  ****    0 ROOT
