@<TRIPOS>MOLECULE
molecule
   33    34     1     0     0
SMALL
bcc


@<TRIPOS>ATOM
      1 F3           0.0000     0.0000     0.0000 f          1 A21      -0.211300
      2 C2           1.3990     0.0000     0.0000 c3         1 A21       0.648900
      3 F4           1.8650    -1.1420    -0.6600 f          1 A21      -0.211300
      4 F1           1.8650     1.1430    -0.6600 f          1 A21      -0.211300
      5 C8           1.9100     0.0000     1.4420 c3         1 A21      -0.176900
      6 C13          1.4090    -1.2190     2.1910 c          1 A21       0.749500
      7 O2           1.6760    -2.3620     1.8760 o          1 A21      -0.488100
      8 N2           0.6560    -0.9040     3.2130 ne         1 A21      -0.793100
      9 C4           3.4380     0.0670     1.4750 c3         1 A21      -0.061100
     10 S1           1.1730     1.3740     2.3910 ss         1 A21      -0.245300
     11 C11          0.3880     0.3420     3.5230 c2         1 A21       0.768100
     12 N3          -0.3850     0.7520     4.5690 nu         1 A21      -0.808200
     13 C1          -0.9970    -0.2380     5.4600 c3         1 A21       0.284800
     14 C3          -1.3120     0.4150     6.8080 c3         1 A21      -0.107100
     15 C6          -2.2720    -0.7520     4.8410 ca         1 A21      -0.141300
     16 C18         -2.7490    -2.0060     5.1790 ca         1 A21       0.150900
     17 F2          -2.0730    -2.7710     6.0660 f          1 A21      -0.137900
     18 C22         -2.9660     0.0320     3.9390 ca         1 A21      -0.094000
     19 C21         -4.1350    -0.4400     3.3700 ca         1 A21      -0.138000
     20 C9          -4.6100    -1.6950     3.7030 ca         1 A21      -0.098000
     21 C19         -3.9200    -2.4780     4.6090 ca         1 A21      -0.160000
     22 H4           3.7870    -0.1510     2.4770 hc         1 A21       0.065033
     23 H4A          3.8460    -0.6600     0.7840 hc         1 A21       0.065033
     24 H4B          3.7620     1.0600     1.1880 hc         1 A21       0.065033
     25 H1          -0.3100    -1.0620     5.6100 h1         1 A21       0.105700
     26 H3          -0.5590     1.1600     7.0330 hc         1 A21       0.052367
     27 H3A         -1.3150    -0.3420     7.5830 hc         1 A21       0.052367
     28 H3B         -2.2860     0.8870     6.7610 hc         1 A21       0.052367
     29 H22         -2.5950     1.0150     3.6780 ha         1 A21       0.132000
     30 H21         -4.6790     0.1740     2.6610 ha         1 A21       0.137000
     31 H9          -5.5250    -2.0640     3.2570 ha         1 A21       0.139000
     32 H19         -4.2930    -3.4600     4.8710 ha         1 A21       0.149000
     33 H12         -0.5300     1.7290     4.7330 hn         1 A21       0.462800
@<TRIPOS>BOND
     1     1     2 1
     2     2     3 1
     3     2     4 1
     4     2     5 1
     5     5     6 1
     6     5     9 1
     7     5    10 1
     8     6     7 2
     9     6     8 1
    10     8    11 2
    11     9    22 1
    12     9    23 1
    13     9    24 1
    14    10    11 1
    15    11    12 1
    16    12    13 1
    17    13    14 1
    18    13    15 1
    19    13    25 1
    20    14    26 1
    21    14    27 1
    22    14    28 1
    23    15    16 ar
    24    15    18 ar
    25    16    17 1
    26    16    21 ar
    27    18    19 ar
    28    18    29 1
    29    19    20 ar
    30    19    30 1
    31    20    21 ar
    32    20    31 1
    33    21    32 1
    34    12    33 1
@<TRIPOS>SUBSTRUCTURE
     1 A21         1 TEMP              0 ****  ****    0 ROOT
