@<TRIPOS>MOLECULE
molecule
   59    61     1     0     0
SMALL
bcc


@<TRIPOS>ATOM
      1 C1           0.0000     0.0000     0.0000 c3         1 A24       0.283900
      2 O1          -0.4740    -1.1530     0.6980 os         1 A24      -0.305900
      3 C2           1.5310     0.0000     0.0000 c3         1 A24       0.130100
      4 O2           2.0080    -1.1670    -0.6730 oh         1 A24      -0.591800
      5 C3           2.0300     0.0000     1.4490 c3         1 A24       0.126100
      6 O3           3.4510     0.1490     1.4670 oh         1 A24      -0.594800
      7 C4           1.3770     1.1720     2.1920 c3         1 A24       0.105100
      8 O4           1.8500     2.4060     1.6460 oh         1 A24      -0.582800
      9 C5          -0.1410     1.0820     2.0270 c3         1 A24       0.126100
     10 O5          -0.4820     1.1770     0.6450 os         1 A24      -0.377600
     11 C6          -0.8040     2.2280     2.7940 c3         1 A24       0.148400
     12 O6          -2.2240     2.0780     2.7410 oh         1 A24      -0.602800
     13 C1'         -1.8240    -1.1740     0.5510 ca         1 A24       0.106100
     14 C2'         -2.5810    -2.1260     1.2200 ca         1 A24      -0.086000
     15 C3'         -3.9560    -2.1490     1.0790 ca         1 A24      -0.134200
     16 C4'         -4.5850    -1.2320     0.2620 ca         1 A24      -0.086000
     17 C5'         -3.8320    -0.2740    -0.4190 ca         1 A24      -0.112600
     18 C6'         -2.4450    -0.2490    -0.2710 ca         1 A24      -0.097000
     19 N1'         -4.7550    -3.1650     1.8000 no         1 A24       0.296200
     20 O1'         -5.9670    -3.1900     1.6730 o          1 A24      -0.204000
     21 O2'         -4.2020    -3.9750     2.5210 o          1 A24      -0.204000
     22 C7'         -4.5030     0.7110    -1.2950 c          1 A24       0.676700
     23 O3'         -3.8450     1.5450    -1.8870 o          1 A24      -0.595100
     24 N2'         -5.8430     0.6850    -1.4370 ns         1 A24      -0.582900
     25 O1B        -10.1790     2.6640    -5.6020 os         1 A24      -0.404600
     26 C2B        -10.7910     2.8310    -4.3230 c3         1 A24       0.125900
     27 C3B        -10.0790     1.9560    -3.2920 c3         1 A24       0.093800
     28 N4'         -8.6830     2.3910    -3.1580 n3         1 A24      -0.664600
     29 C5B         -8.0720     2.2600    -4.4870 c3         1 A24       0.093800
     30 C6B         -8.8340     3.1280    -5.4880 c3         1 A24       0.125900
     31 C7B         -8.0170     1.4130    -2.2880 c3         1 A24       0.116800
     32 C8'         -6.5070     1.6610    -2.3040 c3         1 A24       0.108000
     33 H11         -0.3580    -0.0200    -1.0220 h2         1 A24       0.099700
     34 H21          1.8910     0.8880    -0.5050 h1         1 A24       0.088700
     35 HO21         2.4510    -0.9140    -1.4660 ho         1 A24       0.412000
     36 H31          1.7520    -0.9310     1.9280 h1         1 A24       0.063700
     37 HO31         3.8330    -0.5350     1.9920 ho         1 A24       0.408000
     38 H41          1.6290     1.1160     3.2440 h1         1 A24       0.045700
     39 HO41         2.4340     2.8190     2.2610 ho         1 A24       0.408000
     40 H51         -0.4880     0.1330     2.4180 h1         1 A24       0.073700
     41 H61         -0.4770     2.2080     3.8260 h1         1 A24       0.038200
     42 H62         -0.5240     3.1730     2.3440 h1         1 A24       0.038200
     43 HO1         -2.6270     2.6920     3.3330 ho         1 A24       0.406000
     44 H2'1        -2.0920    -2.8490     1.8630 ha         1 A24       0.177000
     45 H4'1        -5.6630    -1.2540     0.1510 ha         1 A24       0.157000
     46 H6'1        -1.8560     0.4920    -0.7970 ha         1 A24       0.191000
     47 HN21        -6.3850     0.0080    -0.9380 hn         1 A24       0.316500
     48 H2'2       -11.8330     2.5390    -4.3830 h1         1 A24       0.055950
     49 H3'1       -10.5790     2.0490    -2.3350 h1         1 A24       0.049700
     50 H3'2       -10.1040     0.9230    -3.6180 h1         1 A24       0.049700
     51 H5'1        -7.0400     2.5860    -4.4420 h1         1 A24       0.049700
     52 H5'2        -8.1150     1.2250    -4.8030 h1         1 A24       0.049700
     53 H6A1        -8.8370     4.1550    -5.1440 h1         1 A24       0.055950
     54 H6'2        -8.3510     3.0680    -6.4560 h1         1 A24       0.055950
     55 H7'1        -8.2230     0.4120    -2.6460 h1         1 A24       0.043700
     56 H7'2        -8.3890     1.5180    -1.2750 h1         1 A24       0.043700
     57 H8'1        -6.1350     1.5560    -3.3160 h1         1 A24       0.064200
     58 H8'2        -6.3010     2.6620    -1.9460 h1         1 A24       0.064200
     59 H2A1       -10.7190     3.8690    -4.0230 h1         1 A24       0.055950
@<TRIPOS>BOND
     1     1     2 1
     2     1     3 1
     3     1    10 1
     4     1    33 1
     5     2    13 1
     6     3     4 1
     7     3     5 1
     8     3    34 1
     9     4    35 1
    10     5     6 1
    11     5     7 1
    12     5    36 1
    13     6    37 1
    14     7     8 1
    15     7     9 1
    16     7    38 1
    17     8    39 1
    18     9    10 1
    19     9    11 1
    20     9    40 1
    21    11    12 1
    22    11    41 1
    23    11    42 1
    24    12    43 1
    25    13    14 ar
    26    13    18 ar
    27    14    15 ar
    28    14    44 1
    29    15    16 ar
    30    15    19 1
    31    16    17 ar
    32    16    45 1
    33    17    18 ar
    34    17    22 1
    35    18    46 1
    36    19    20 1
    37    19    21 1
    38    22    23 2
    39    22    24 1
    40    24    32 1
    41    24    47 1
    42    25    26 1
    43    25    30 1
    44    26    27 1
    45    26    59 1
    46    26    48 1
    47    27    28 1
    48    27    49 1
    49    27    50 1
    50    28    29 1
    51    28    31 1
    52    29    30 1
    53    29    51 1
    54    29    52 1
    55    30    53 1
    56    30    54 1
    57    31    32 1
    58    31    55 1
    59    31    56 1
    60    32    57 1
    61    32    58 1
@<TRIPOS>SUBSTRUCTURE
     1 A24         1 TEMP              0 ****  ****    0 ROOT
