@<TRIPOS>MOLECULE
A25
   41    43     1     0     0
SMALL
bcc


@<TRIPOS>ATOM
      1 C1         -0.2190    0.0200    0.0820 ca        1 A25     -0.137000
      2 C2          1.1300    0.3600   -0.0540 ca        1 A25      0.057100
      3 C3          2.1070   -0.1520    0.8480 ca        1 A25      0.060600
      4 C4          1.6700   -1.0050    1.8830 ca        1 A25     -0.122000
      5 C5          0.3190   -1.3330    1.9950 ca        1 A25      0.024400
      6 C6         -0.6310   -0.8290    1.1040 ca        1 A25     -0.127000
      7 CL7        -0.1790   -2.3720    3.2460 cl        1 A25     -0.085400
      8 O8          1.5370    1.2920   -0.9990 os        1 A25     -0.345900
      9 C9          1.2210    0.9640   -2.3570 c3        1 A25      0.128400
     10 N10         3.4640    0.1630    0.6550 n         1 A25     -0.429100
     11 C11         4.3480    0.3430    1.7210 c         1 A25      0.781100
     12 N12         5.6390    0.9000    1.5150 n         1 A25     -0.542400
     13 O13         4.0620    0.0590    2.9070 o         1 A25     -0.615100
     14 C14         6.4640    0.7700    0.3940 ca        1 A25      0.466900
     15 N15         6.0190    0.1700   -0.7550 nb        1 A25     -0.768000
     16 C16         6.9060    0.1070   -1.7760 ca        1 A25      0.565300
     17 C17         8.2370    0.6370   -1.6850 ca        1 A25      0.230900
     18 N18         8.6610    1.2270   -0.5610 nb        1 A25     -0.575000
     19 C19         7.8040    1.2990    0.4710 ca        1 A25      0.197900
     20 O20         6.6220   -0.5060   -2.9690 os        1 A25     -0.440100
     21 C21         5.2900   -0.9690   -3.2440 c3        1 A25      0.131400
     22 C22         4.5490    0.0530   -4.0880 c3        1 A25     -0.107400
     23 C23         2.2890    0.0850   -2.9820 c3        1 A25     -0.114400
     24 C24         3.5380    0.8720   -3.3170 c3        1 A25     -0.079400
     25 H12         6.1270    1.0640    2.3750 hn        1 A25      0.344500
     26 H19         8.1790    1.7900    1.3830 h4        1 A25      0.039100
     27 H17         8.9320    0.5650   -2.5350 h4        1 A25      0.052100
     28 H211        4.7300   -1.2410   -2.3160 h1        1 A25      0.071200
     29 H212        5.4890   -1.9020   -3.8440 h1        1 A25      0.071200
     30 H221        5.3000    0.7440   -4.5590 hc        1 A25      0.057700
     31 H222        4.0290   -0.4890   -4.9220 hc        1 A25      0.057700
     32 H241        3.9970    1.2620   -2.3710 hc        1 A25      0.050200
     33 H242        3.2550    1.7640   -3.9380 hc        1 A25      0.050200
     34 H231        2.5420   -0.7500   -2.2770 hc        1 A25      0.053200
     35 H232        1.8690   -0.3720   -3.9160 hc        1 A25      0.053200
     36 H91         0.2190    0.4680   -2.4250 h1        1 A25      0.057200
     37 H92         1.1790    1.9710   -2.8570 h1        1 A25      0.057200
     38 H1         -0.9590    0.4420   -0.6160 ha        1 A25      0.146000
     39 H6         -1.6940   -1.0900    1.2100 ha        1 A25      0.151000
     40 H4          2.3960   -1.4030    2.6140 ha        1 A25      0.184000
     41 H10         3.6710    0.5860   -0.2280 hn        1 A25      0.349500
@<TRIPOS>BOND
     1    1    2 ar  
     2    1    6 ar  
     3    1   38 1   
     4    2    3 ar  
     5    2    8 1   
     6    3    4 ar  
     7    3   10 1   
     8    4    5 ar  
     9    4   40 1   
    10    5    6 ar  
    11    5    7 1   
    12    6   39 1   
    13    8    9 1   
    14    9   23 1   
    15    9   36 1   
    16    9   37 1   
    17   10   11 1   
    18   10   41 1   
    19   11   12 1   
    20   11   13 2   
    21   12   14 1   
    22   12   25 1   
    23   14   15 ar  
    24   14   19 ar  
    25   15   16 ar  
    26   16   17 ar  
    27   16   20 1   
    28   17   18 ar  
    29   17   27 1   
    30   18   19 ar  
    31   19   26 1   
    32   20   21 1   
    33   21   22 1   
    34   21   28 1   
    35   21   29 1   
    36   22   24 1   
    37   22   30 1   
    38   22   31 1   
    39   23   24 1   
    40   23   34 1   
    41   23   35 1   
    42   24   32 1   
    43   24   33 1   
@<TRIPOS>SUBSTRUCTURE
     1 A25         1 TEMP              0 ****  ****    0 ROOT
