@<TRIPOS>MOLECULE
A26
   28    28     1     0     0
SMALL
bcc


@<TRIPOS>ATOM
      1 C1           0.0000     0.0000     0.0000 ca         1 A26      -0.108000
      2 C2           1.3820     0.0000     0.0000 ca         1 A26      -0.042000
      3 C3           2.0740     0.0000     1.1960 ca         1 A26      -0.256300
      4 C4           1.3870    -0.0000     2.3970 ca         1 A26      -0.042000
      5 C5           0.0060    -0.0010     2.4040 ca         1 A26      -0.108000
      6 C6          -0.6920     0.0000     1.2040 ca         1 A26      -0.008400
      7 C11          3.5810    -0.0000     1.1930 c3         1 A26       0.641200
      8 F12          4.0480     1.3190     1.1920 f          1 A26      -0.207300
      9 F13          4.0500    -0.6600     2.3350 f          1 A26      -0.207300
     10 F14          4.0440    -0.6600     0.0490 f          1 A26      -0.207300
     11 N15         -2.0910     0.0010     1.2070 ns         1 A26      -0.128100
     12 C16         -2.7680    -0.6390     0.2330 c          1 A26       0.571300
     13 C17         -4.2330    -0.5420     0.1700 ce         1 A26      -0.186900
     14 C18         -4.9420     0.2330     1.1440 cg         1 A26       0.205500
     15 C19         -4.9170    -1.1900    -0.8150 c2         1 A26       0.189900
     16 O20         -4.2530    -1.9170    -1.7290 oh         1 A26      -0.384100
     17 C21         -6.4200    -1.0900    -0.8790 c3         1 A26      -0.020900
     18 O25         -2.1660    -1.2970    -0.5940 o          1 A26      -0.615100
     19 N26         -5.4920     0.8640     1.9120 n1         1 A26      -0.385800
     20 H11          0.0020    -0.0760    -1.0810 ha         1 A26       0.150000
     21 H21          2.1340    -0.2250    -0.7460 ha         1 A26       0.122000
     22 H41          2.0730     0.1190     3.2260 ha         1 A26       0.122000
     23 H51         -0.8880     0.1500     2.9970 ha         1 A26       0.150000
     24 HN11        -2.9030     0.5850     1.1560 hn         1 A26       0.217500
     25 HO20        -4.9360    -2.3530    -2.2100 ho         1 A26       0.395000
     26 H211        -6.5690    -0.2570    -1.5560 hc         1 A26       0.047367
     27 H212        -6.8410    -0.8390     0.0870 hc         1 A26       0.047367
     28 H213        -6.6110    -2.1550    -0.8280 hc         1 A26       0.047367
@<TRIPOS>BOND
     1     1     2 ar  
     2     1     6 ar  
     3     1    20 1   
     4     2     3 ar  
     5     2    21 1   
     6     3     4 ar  
     7     3     7 1   
     8     4     5 ar  
     9     4    22 1   
    10     5     6 ar  
    11     5    23 1   
    12     6    11 1   
    13     7     8 1   
    14     7     9 1   
    15     7    10 1   
    16    11    12 1   
    17    11    24 1   
    18    12    13 1   
    19    12    18 2   
    20    13    14 1   
    21    13    15 2   
    22    14    19 3   
    23    15    16 1   
    24    15    17 1   
    25    16    25 1   
    26    17    26 1   
    27    17    27 1   
    28    17    28 1   
@<TRIPOS>SUBSTRUCTURE
     1 A26         1 TEMP              0 ****  ****    0 ROOT
