@<TRIPOS>MOLECULE
A27
   49    52     1     0     0
SMALL
bcc


@<TRIPOS>ATOM
      1 C1           0.0000     0.0000     0.0000 ca         1 A27      -0.100000
      2 C2           1.3800     0.0000     0.0000 ca         1 A27      -0.098000
      3 C3           2.0740     0.0000     1.2080 cp         1 A27      -0.030000
      4 C4           1.3690    -0.0000     2.4110 ca         1 A27      -0.098000
      5 C5          -0.0110    -0.0010     2.3990 ca         1 A27      -0.100000
      6 C6          -0.6940     0.0050     1.1960 ca         1 A27      -0.103000
      7 C12          3.5570    -0.0000     1.2150 cp         1 A27      -0.069000
      8 C13          4.2570     0.9320     2.0080 cq         1 A27       0.029000
      9 C14          5.6440     0.9370     2.0200 ca         1 A27      -0.120000
     10 C15          6.3470     0.0200     1.2460 ca         1 A27      -0.167200
     11 C16          5.6480    -0.9120     0.4530 ca         1 A27      -0.270900
     12 C17          4.2510    -0.9200     0.4470 ca         1 A27      -0.012000
     13 C20          3.5090     1.9090     2.8330 cq         1 A27      -0.060000
     14 C21          2.4860     2.6670     2.2630 ca         1 A27      -0.071000
     15 C22          1.7910     3.5750     3.0330 ca         1 A27      -0.140000
     16 C23          2.1090     3.7360     4.3740 ca         1 A27       0.126100
     17 C24          3.1270     2.9850     4.9450 ca         1 A27      -0.140000
     18 C25          3.8220     2.0700     4.1830 ca         1 A27      -0.071000
     19 O30          1.4220     4.6330     5.1310 oh         1 A27      -0.501100
     20 N31          7.6840    -0.2180     1.0510 na         1 A27       0.413900
     21 N32          7.8360    -1.2800     0.1530 nc         1 A27      -0.611100
     22 C33          6.6650    -1.7180    -0.2250 cd         1 A27       0.310500
     23 N34          6.4260    -2.7700    -1.1160 ns         1 A27      -0.014400
     24 C35          7.4610    -3.4310    -1.6720 c          1 A27       0.538100
     25 C36          7.2030    -4.5640    -2.6330 c3         1 A27      -0.096400
     26 C37          8.5370    -5.1380    -3.1130 c3         1 A27      -0.015400
     27 C40          8.2760    -6.2870    -4.0880 c3         1 A27       0.002900
     28 O46          8.6000    -3.1150    -1.3980 o          1 A27      -0.579100
     29 H1          -0.5410     0.0020    -0.9390 ha         1 A27       0.103500
     30 H2           1.9230    -0.0020    -0.9380 ha         1 A27       0.112500
     31 H4           1.9030    -0.0020     3.3530 ha         1 A27       0.112500
     32 H5          -0.5600     0.0010     3.3320 ha         1 A27       0.103500
     33 H6          -1.7770     0.0050     1.1910 ha         1 A27       0.102000
     34 H14          6.1780     1.6540     2.6300 ha         1 A27       0.113000
     35 H17          3.7150    -1.7030    -0.0750 ha         1 A27       0.104000
     36 H21          2.2380     2.5420     1.2160 ha         1 A27       0.114500
     37 H22          0.9970     4.1630     2.5900 ha         1 A27       0.115000
     38 H24          3.3710     3.1120     5.9930 ha         1 A27       0.115000
     39 H25          4.6170     1.4840     4.6290 ha         1 A27       0.114500
     40 HO30         1.8710     5.4620     5.1210 ho         1 A27       0.403000
     41 HN34         5.4860    -3.0400    -1.3300 hn         1 A27       0.168500
     42 H36          6.6420    -4.1960    -3.4830 hc         1 A27       0.026700
     43 H36A         6.6350    -5.3390    -2.1330 hc         1 A27       0.026700
     44 H37          9.0990    -5.5070    -2.2620 hc         1 A27       0.028700
     45 H37A         9.1060    -4.3630    -3.6120 hc         1 A27       0.028700
     46 H40          9.2210    -6.6940    -4.4280 hc         1 A27       0.000033
     47 H40A         7.7070    -7.0620    -3.5890 hc         1 A27       0.000033
     48 H40B         7.7150    -5.9180    -4.9390 hc         1 A27       0.000033
     49 HN31         8.4320     0.2880     1.4830 hn         1 A27       0.155700
@<TRIPOS>BOND
     1     1     2 ar  
     2     1     6 ar  
     3     1    29 1   
     4     2     3 ar  
     5     2    30 1   
     6     3     4 ar  
     7     3     7 1   
     8     4     5 ar  
     9     4    31 1   
    10     5     6 ar  
    11     5    32 1   
    12     6    33 1   
    13     7     8 1   
    14     7    12 ar  
    15     8     9 2   
    16     8    13 1   
    17     9    10 ar  
    18     9    34 1   
    19    10    11 ar  
    20    10    20 1   
    21    11    12 ar  
    22    11    22 1   
    23    12    35 1   
    24    13    14 1   
    25    13    18 2   
    26    14    15 ar  
    27    14    36 1   
    28    15    16 ar  
    29    15    37 1   
    30    16    17 ar  
    31    16    19 1   
    32    17    18 ar  
    33    17    38 1   
    34    18    39 1   
    35    19    40 1   
    36    20    21 1   
    37    20    49 1   
    38    21    22 2   
    39    22    23 1   
    40    23    24 1   
    41    23    41 1   
    42    24    25 1   
    43    24    28 2   
    44    25    26 1   
    45    25    42 1   
    46    25    43 1   
    47    26    27 1   
    48    26    44 1   
    49    26    45 1   
    50    27    46 1   
    51    27    47 1   
    52    27    48 1   
@<TRIPOS>SUBSTRUCTURE
     1 A27         1 TEMP              0 ****  ****    0 ROOT
