@<TRIPOS>MOLECULE
A28
   38    40     1     0     0
SMALL
bcc


@<TRIPOS>ATOM
      1 C1          0.0410    0.0240    0.0400 cp        1 A28     -0.075000
      2 C2          1.4660    0.0280   -0.0310 ca        1 A28      0.139900
      3 C3          2.2610    0.0700    1.1360 ca        1 A28      0.070900
      4 C4         -0.5970    0.0590    1.2800 ca        1 A28     -0.045000
      5 N5          2.0640    0.2210    3.6960 na        1 A28      0.002900
      6 N6          1.0560    0.1880    4.5870 nc        1 A28     -0.505100
      7 C7         -0.1210    0.1460    3.8910 cd        1 A28      0.422500
      8 C8          0.1630    0.0970    2.4410 ca        1 A28     -0.228900
      9 C9          1.5990    0.1060    2.3800 ca        1 A28     -0.053200
     10 C10        -0.7730   -0.0180   -1.1750 cp        1 A28     -0.044000
     11 C11        -0.5060    0.8380   -2.2520 ca        1 A28     -0.111500
     12 C12        -1.3090    0.8050   -3.3910 ca        1 A28     -0.130500
     13 C13        -2.3810   -0.0840   -3.4680 ca        1 A28     -0.121000
     14 C14        -2.6490   -0.9420   -2.4010 ca        1 A28     -0.130500
     15 C15        -1.8520   -0.9110   -1.2600 ca        1 A28     -0.111500
     16 F16         2.0910   -0.0200   -1.2280 f         1 A28     -0.117900
     17 F17         3.6110    0.0690    1.0620 f         1 A28     -0.120900
     18 N18        -1.4110    0.1700    4.4050 n         1 A28     -0.475400
     19 C19        -1.7740   -0.0820    5.7320 c         1 A28      0.664100
     20 C20        -3.2510    0.1030    6.0390 c3        1 A28     -0.151400
     21 O21        -0.9510   -0.4400    6.5850 o         1 A28     -0.543100
     22 C22        -3.5420   -0.2200    7.4900 c3        1 A28     -0.076400
     23 C23        -5.0040   -0.0360    7.8030 c3        1 A28     -0.095100
     24 H4         -1.6970    0.0600    1.3290 ha        1 A28      0.145000
     25 H11         0.3460    1.5320   -2.1970 ha        1 A28      0.137500
     26 H12        -1.0930    1.4810   -4.2310 ha        1 A28      0.135000
     27 H13        -3.0120   -0.1100   -4.3680 ha        1 A28      0.134000
     28 H14        -3.4900   -1.6490   -2.4620 ha        1 A28      0.135000
     29 H15        -2.0610   -1.5940   -0.4230 ha        1 A28      0.137500
     30 HN18       -2.1200    0.4100    3.7510 hn        1 A28      0.324500
     31 H20        -3.8570   -0.5670    5.3730 hc        1 A28      0.064200
     32 H20A       -3.5430    1.1640    5.8210 hc        1 A28      0.064200
     33 H22        -2.9180    0.4400    8.1490 hc        1 A28      0.061700
     34 H22A       -3.2310   -1.2770    7.7040 hc        1 A28      0.061700
     35 H23        -5.1980   -0.2780    8.8760 hc        1 A28      0.035700
     36 H23A       -5.6340   -0.7070    7.1710 hc        1 A28      0.035700
     37 H23B       -5.3200    1.0190    7.6180 hc        1 A28      0.035700
     38 HN5         2.9770   -0.0380    4.0000 hn        1 A28      0.329700
@<TRIPOS>BOND
     1    1    2 ar
     2    1    4 ar
     3    1   10 1
     4    2    3 ar
     5    2   16 1
     6    3    9 ar
     7    3   17 1
     8    4    8 ar
     9    4   24 1
    10    5    6 1
    11    5    9 1
    12    5   38 1
    13    6    7 2
    14    7    8 1
    15    7   18 1
    16    8    9 ar
    17   10   11 ar
    18   10   15 ar
    19   11   12 ar
    20   11   25 1
    21   12   13 ar
    22   12   26 1
    23   13   14 ar
    24   13   27 1
    25   14   15 ar
    26   14   28 1
    27   15   29 1
    28   18   19 1
    29   18   30 1
    30   19   20 1
    31   19   21 2
    32   20   22 1
    33   20   31 1
    34   20   32 1
    35   22   23 1
    36   22   33 1
    37   22   34 1
    38   23   35 1
    39   23   36 1
    40   23   37 1
@<TRIPOS>SUBSTRUCTURE
     1 A28         1 TEMP              0 ****  ****    0 ROOT
