@<TRIPOS>MOLECULE
A29
   17    17     1     0     0
SMALL
bcc


@<TRIPOS>ATOM
      1 C8         -0.0020    0.1060   -0.0170 c         1 A29      0.864600
      2 O1          0.9530   -0.6280    0.3560 o         1 A29     -0.806800
      3 O2         -0.4140    1.1390    0.5670 o         1 A29     -0.806800
      4 C7         -0.7120   -0.2920   -1.3260 c         1 A29      0.464700
      5 C1          0.0250    0.0070   -2.5890 ca        1 A29     -0.107600
      6 C2         -0.6790    0.3200   -3.7540 ca        1 A29     -0.176000
      7 C3          0.0280    0.6160   -4.9270 ca        1 A29      0.086100
      8 C4          1.4290    0.5930   -4.9530 ca        1 A29     -0.162000
      9 C5          2.1150    0.2720   -3.7830 ca        1 A29     -0.128000
     10 C6          1.4260   -0.0160   -2.6060 ca        1 A29     -0.114000
     11 O3         -0.6100    0.9380   -6.1120 oh        1 A29     -0.521100
     12 O7         -1.8260   -0.8280   -1.3710 o         1 A29     -0.577100
     13 HA         -1.7780    0.3250   -3.7380 ha        1 A29      0.141000
     14 H6          1.9630   -0.2620   -1.6700 ha        1 A29      0.186000
     15 H4          1.9620    0.8270   -5.8830 ha        1 A29      0.128000
     16 H3         -1.5610    0.9290   -5.9360 ho        1 A29      0.410000
     17 H5          3.2140    0.2500   -3.7900 ha        1 A29      0.120000
@<TRIPOS>BOND
     1    1    2 1   
     2    1    3 1   
     3    1    4 1   
     4    4    5 1   
     5    4   12 2   
     6    5    6 ar  
     7    5   10 ar  
     8    6    7 ar  
     9    6   13 1   
    10    7    8 ar  
    11    7   11 1   
    12    8    9 ar  
    13    8   15 1   
    14    9   10 ar  
    15    9   17 1   
    16   10   14 1   
    17   11   16 1   
@<TRIPOS>SUBSTRUCTURE
     1 A29         1 TEMP              0 ****  ****    0 ROOT
