@<TRIPOS>MOLECULE
molecule
   17    17     1     0     0
SMALL
bcc


@<TRIPOS>ATOM
      1 C8           0.0000     0.0000     0.0000 c          1 A29       0.816600
      2 O1           1.2130     0.0000     0.0000 o          1 A29      -0.810300
      3 O2          -0.6730     0.0000     1.1650 o          1 A29      -0.810300
      4 C7          -0.7470     0.0040    -1.2930 c          1 A29       0.476700
      5 C1          -0.0140     0.1290    -2.5660 ca         1 A29      -0.148600
      6 C2          -0.7150     0.2650    -3.7690 ca         1 A29      -0.116000
      7 C3          -0.0200     0.3820    -4.9600 ca         1 A29       0.054100
      8 C4           1.3700     0.3630    -4.9590 ca         1 A29      -0.150000
      9 C5           2.0650     0.2290    -3.7710 ca         1 A29      -0.159000
     10 C6           1.3850     0.1170    -2.5770 ca         1 A29      -0.085000
     11 O3          -0.6960     0.5140    -6.1310 oh         1 A29      -0.533100
     12 O7          -1.9550    -0.0940    -1.2960 o          1 A29      -0.536100
     13 HA          -1.7980     0.2790    -3.7680 ha         1 A29       0.147000
     14 H6           1.9340     0.0120    -1.6480 ha         1 A29       0.216000
     15 H4           1.9110     0.4530    -5.8930 ha         1 A29       0.116000
     16 H3          -0.8800     1.4250    -6.2860 ho         1 A29       0.402000
     17 H5           3.1480     0.2180    -3.7780 ha         1 A29       0.119000
@<TRIPOS>BOND
     1     1     2 1
     2     1     3 1
     3     1     4 1
     4     4     5 1
     5     4    12 2
     6     5     6 ar
     7     5    10 ar
     8     6     7 ar
     9     7     8 ar
    10     7    11 1
    11     8     9 ar
    12     9    10 ar
    13     6    13 1
    14    10    14 1
    15     8    15 1
    16    11    16 1
    17     9    17 1
@<TRIPOS>SUBSTRUCTURE
     1 A29         1 TEMP              0 ****  ****    0 ROOT
