@<TRIPOS>MOLECULE
A2C
   48    50     1     0     0
SMALL
bcc


@<TRIPOS>ATOM
      1 NAA          0.0000     0.0000     0.0000 nz         1 A2C       0.891000
      2 CAB          1.3790     0.0000     0.0000 c2         1 A2C      -0.292000
      3 CAC          2.1180     0.0000     1.2820 c2         1 A2C      -0.168000
      4 CAD          1.4190     0.0010     2.4920 c2         1 A2C      -0.041000
      5 CAE          2.1010     0.0010     3.6880 c2         1 A2C      -0.175000
      6 CAF          9.1790     5.4680     1.8220 ca         1 A2C      -0.135000
      7 CAG          8.1250     5.8470     2.6240 ca         1 A2C      -0.056000
      8 CAH          7.7760     5.0800     3.7380 ca         1 A2C      -0.185000
      9 CAI          6.6430     5.4920     4.5950 c2         1 A2C      -0.303000
     10 NAJ          6.3180     4.7760     5.6340 n2         1 A2C       0.032000
     11 NAK          2.0310     0.0000    -1.1280 n2         1 A2C       0.084000
     12 CAL          3.5100    -0.0050     1.2820 c2         1 A2C       0.089000
     13 CAM          4.2020    -0.0050     2.4920 c3         1 A2C      -0.216000
     14 CAN          3.4890     0.0020     3.7010 c2         1 A2C       0.160000
     15 OAO          4.1570     0.0030     4.8810 oh         1 A2C      -0.210000
     16 CAQ          9.9030     4.3210     2.1150 ca         1 A2C       0.188000
     17 CAR          9.5640     3.5460     3.2350 ca         1 A2C      -0.113000
     18 CAS          8.4940     3.9270     4.0420 ca         1 A2C      -0.038000
     19 NAT          5.9310     6.6330     4.2950 nz         1 A2C       0.956000
     20 CAU          5.6760    -0.0110     2.5020 c2         1 A2C      -0.329000
     21 NAV          6.3150    -0.0110     3.6270 n2         1 A2C       0.012000
     22 CAW          7.7800    -0.0170     3.6350 c3         1 A2C      -0.050000
     23 CAX          8.2920     1.2900     4.2460 c3         1 A2C      -0.099000
     24 NAY          9.7530     1.3350     4.1480 n2         1 A2C      -0.067000
     25 CAZ         10.3300     2.3260     3.5490 c2         1 A2C      -0.018000
     26 HNAA        -0.3340     0.8170     0.4710 hn         1 A2C       0.024000
     27 HNAB        -0.3340    -0.8170     0.4720 hn         1 A2C       0.024000
     28 HAD          0.3350     0.0000     2.4890 ha         1 A2C       0.083000
     29 HAE          1.5530     0.0040     4.6220 ha         1 A2C       0.137000
     30 HAF          9.4450     6.0680     0.9600 ha         1 A2C       0.140000
     31 HAG          7.5640     6.7440     2.3890 ha         1 A2C       0.085000
     32 HNAJ         6.8340     3.9470     5.8540 hn         1 A2C       0.136000
     33 HNAK         1.5320     0.0000    -1.9960 hn         1 A2C       0.099000
     34 HAL          4.0540    -0.0110     0.3450 ha         1 A2C       0.150000
     35 HOAO         3.7340    -0.5860     5.4830 ho         1 A2C       0.234000
     36 HOAP        11.6010     4.6190     1.3360 ho         1 A2C       0.232000
     37 HAS          8.2260     3.3320     4.9070 ha         1 A2C       0.133000
     38 HNAT         5.5250     6.5430     3.3840 hn         1 A2C       0.017667
     39 HNAC         5.2050     6.7610     4.9720 hn         1 A2C       0.017667
     40 HAU          5.0660     0.8670     2.6800 DU         1 A2C       0.307000
     41 HAW          8.1470    -0.1100     2.6200 h1         1 A2C       0.092000
     42 HAWA         8.1350    -0.8540     4.2250 h1         1 A2C       0.092000
     43 HAX          7.9980     1.3420     5.2870 h1         1 A2C       0.057000
     44 HAXA         7.8680     2.1290     3.7080 h1         1 A2C       0.057000
     45 HAZ         11.4110     2.3500     3.4800 h4         1 A2C       0.147000
     46 HAA3        -0.3340    -0.0020    -0.9440 hn         1 A2C       0.024000
     47 HAT3         6.5430     7.4240     4.3170 hn         1 A2C       0.017667
     48 OAP         10.9370     3.9500     1.3210 oh         1 A2C      -0.222000
@<TRIPOS>BOND
     1     1     2 1   
     2     1    26 1   
     3     1    27 1   
     4     1    46 1   
     5     2     3 1   
     6     2    11 1   
     7     3     4 1   
     8     3    12 1   
     9     4     5 1   
    10     4    28 1   
    11     5    14 1   
    12     5    29 1   
    13     6     7 1   
    14     6    16 1   
    15     6    30 1   
    16     7     8 1   
    17     7    31 1   
    18     8     9 1   
    19     8    18 1   
    20     9    10 1   
    21     9    19 1   
    22    10    32 1   
    23    11    33 1   
    24    12    13 1   
    25    12    34 1   
    26    13    14 1   
    27    13    20 1   
    28    13    40 1   
    29    14    15 1   
    30    15    35 1   
    31    16    17 1   
    32    16    48 1   
    33    17    18 1   
    34    17    25 1   
    35    18    37 1   
    36    19    38 1   
    37    19    39 1   
    38    19    47 1   
    39    20    21 1   
    40    20    40 1   
    41    21    22 1   
    42    22    23 1   
    43    22    41 1   
    44    22    42 1   
    45    23    24 1   
    46    23    43 1   
    47    23    44 1   
    48    24    25 1   
    49    25    45 1   
    50    36    48 1   
@<TRIPOS>SUBSTRUCTURE
     1 A2C         1 TEMP              0 ****  ****    0 ROOT
