@<TRIPOS>MOLECULE
molecule
   48    49     1     0     0
SMALL
bcc


@<TRIPOS>ATOM
      1 NAA          0.0000     0.0000     0.0000 nz         1 A2C      -0.771600
      2 CAB          1.3790     0.0000     0.0000 ce         1 A2C       0.533300
      3 CAC          2.1180     0.0000     1.2820 ca         1 A2C      -0.250900
      4 CAD          1.4190     0.0010     2.4920 ca         1 A2C      -0.083500
      5 CAE          2.1010     0.0010     3.6880 ca         1 A2C      -0.177500
      6 CAF          9.1790     5.4680     1.8220 ca         1 A2C      -0.177500
      7 CAG          8.1250     5.8470     2.6240 ca         1 A2C      -0.083500
      8 CAH          7.7760     5.0800     3.7380 ca         1 A2C      -0.250900
      9 CAI          6.6430     5.4920     4.5950 ce         1 A2C       0.533300
     10 NAJ          6.3180     4.7760     5.6340 n2         1 A2C      -0.699600
     11 NAK          2.0310     0.0000    -1.1280 n2         1 A2C      -0.699600
     12 CAL          3.5100    -0.0050     1.2820 ca         1 A2C      -0.028000
     13 CAM          4.2020    -0.0050     2.4920 ca         1 A2C      -0.235400
     14 CAN          3.4890     0.0020     3.7010 ca         1 A2C       0.212600
     15 OAO          4.1570     0.0030     4.8810 oh         1 A2C      -0.471600
     16 CAQ          9.9030     4.3210     2.1150 ca         1 A2C       0.212600
     17 CAR          9.5640     3.5460     3.2350 ca         1 A2C      -0.235400
     18 CAS          8.4940     3.9270     4.0420 ca         1 A2C      -0.028000
     19 NAT          5.9310     6.6330     4.2950 nz         1 A2C      -0.771600
     20 CAU          5.6760    -0.0110     2.5020 ce         1 A2C       0.387800
     21 NAV          6.3150    -0.0110     3.6270 n2         1 A2C      -0.507400
     22 CAW          7.7800    -0.0170     3.6350 c3         1 A2C       0.079300
     23 CAX          8.2920     1.2900     4.2460 c3         1 A2C       0.079300
     24 NAY          9.7530     1.3350     4.1480 n2         1 A2C      -0.507400
     25 CAZ         10.3300     2.3260     3.5490 ce         1 A2C       0.387800
     26 HNAA        -0.3340    -0.0000    -0.9440 hn         1 A2C       0.471300
     27 HNAB        -0.3340     0.8170     0.4710 hn         1 A2C       0.471300
     28 HAD          0.3350     0.0000     2.4890 ha         1 A2C       0.115000
     29 HAE          1.5530     0.0040     4.6220 ha         1 A2C       0.171000
     30 HAF          9.4450     6.0680     0.9600 ha         1 A2C       0.171000
     31 HAG          7.5640     6.7440     2.3890 ha         1 A2C       0.115000
     32 HNAJ         5.5520     5.0540     6.2150 hn         1 A2C       0.457900
     33 HNAK         3.0320     0.0000    -1.1300 hn         1 A2C       0.457900
     34 HAL          4.0540    -0.0110     0.3450 ha         1 A2C       0.166000
     35 HOAO         3.7390    -0.5940     5.4800 ho         1 A2C       0.456500
     36 HOAP        11.6390     4.5740     1.4060 ho         1 A2C       0.456500
     37 HAS          8.2260     3.3320     4.9070 ha         1 A2C       0.166000
     38 HNAT         6.5450     7.4230     4.3100 hn         1 A2C       0.471300
     39 HNAC         5.5250     6.5430     3.3850 hn         1 A2C       0.471300
     40 HAU          6.2230    -0.0150     1.5670 h4         1 A2C       0.100300
     41 HAW          8.1350    -0.8540     4.2250 h1         1 A2C       0.065950
     42 HAWA         8.1470    -0.1100     2.6200 h1         1 A2C       0.065950
     43 HAX          7.9980     1.3420     5.2870 h1         1 A2C       0.065950
     44 HAXA         7.8680     2.1290     3.7080 h1         1 A2C       0.065950
     45 HAZ          9.7910     2.3640     2.6110 h4         1 A2C       0.100300
     46 HAA3        -0.3340    -0.8050     0.4920 hn         1 A2C       0.471300
     47 HAT3         5.2120     6.7670     4.9780 hn         1 A2C       0.471300
     48 OAP         10.9370     3.9500     1.3210 oh         1 A2C      -0.471600
@<TRIPOS>BOND
     1    10     9 2
     2     9    19 1
     3     9     8 1
     4     7     8 ar
     5     7     6 ar
     6     8    18 ar
     7     6    16 ar
     8    18    17 ar
     9    16    17 ar
    10    16    48 1
    11    17    25 1
    12    25    24 2
    13    24    23 1
    14    23    22 1
    15    15    14 1
    16    21    22 1
    17    21    20 2
    18    14     5 ar
    19    14    13 ar
    20     5     4 ar
    21    20    13 1
    22    13    12 ar
    23     4     3 ar
    24    12     3 ar
    25     3     2 1
    26     2     1 1
    27     2    11 2
    28     1    26 1
    29     1    27 1
    30     4    28 1
    31     5    29 1
    32     6    30 1
    33     7    31 1
    34    10    32 1
    35    11    33 1
    36    12    34 1
    37    15    35 1
    38    48    36 1
    39    18    37 1
    40    19    38 1
    41    19    39 1
    42    20    40 1
    43    22    41 1
    44    22    42 1
    45    23    43 1
    46    23    44 1
    47    25    45 1
    48    46     1 1
    49    47    19 1
@<TRIPOS>SUBSTRUCTURE
     1 A2C         1 TEMP              0 ****  ****    0 ROOT
