@<TRIPOS>MOLECULE
A2E
   82    86     1     0     0
SMALL
bcc


@<TRIPOS>ATOM
      1 O11        -0.1910   -0.2770    0.0140 o         1 A2E     -0.560500
      2 C9          1.0310   -0.0880    0.0620 c         1 A2E      0.684700
      3 C8          1.7960    0.3170    1.2440 cc        1 A2E     -0.215200
      4 N10         1.7770   -0.2660   -1.1360 n         1 A2E     -0.429100
      5 C5          3.1360   -0.1200   -1.1820 cc        1 A2E      0.163400
      6 C6          3.8310   -0.2530   -2.5090 c3        1 A2E     -0.078200
      7 C4          3.8590    0.1720   -0.0280 cd        1 A2E     -0.330200
      8 C7          3.1420    0.4440    1.1880 cd        1 A2E     -0.066000
      9 C3          5.3430    0.2970   -0.0150 c3        1 A2E      0.231700
     10 C2          6.0170    0.1000   -1.3790 c3        1 A2E     -0.100400
     11 C1          5.1150    0.5470   -2.5060 c3        1 A2E     -0.074400
     12 N12         5.9070   -0.6970    0.9980 n4        1 A2E     -0.775000
     13 C13         7.3160   -0.3940    1.3770 c3        1 A2E      0.097800
     14 C14         7.8870   -1.4020    2.3670 c3        1 A2E     -0.108400
     15 C15         9.3160   -1.0210    2.7040 c3        1 A2E     -0.078400
     16 C16         9.9130   -2.0060    3.6870 c3        1 A2E     -0.079400
     17 C17        11.3390   -1.6300    4.0310 c3        1 A2E     -0.079400
     18 C18        11.9380   -2.6110    5.0160 c3        1 A2E     -0.079400
     19 C19        13.3620   -2.2320    5.3660 c3        1 A2E     -0.079400
     20 C20        13.9600   -3.2110    6.3540 c3        1 A2E     -0.079400
     21 C21        15.3790   -2.8240    6.7100 c3        1 A2E     -0.084400
     22 C22        15.9560   -3.8250    7.7110 c3        1 A2E      0.166800
     23 N23        17.3030   -3.4750    8.1330 nh        1 A2E     -0.712600
     24 C24        17.8780   -4.3930    9.0620 ca        1 A2E      0.114600
     25 C25        17.7720   -4.1510   10.4330 ca        1 A2E     -0.163600
     26 C30        17.0390   -2.9540   10.9280 c3        1 A2E     -0.023100
     27 C26        18.4370   -5.0530   11.3410 ca        1 A2E      0.444600
     28 C33        18.3220   -4.8350   12.8280 c3        1 A2E     -0.133700
     29 C32        18.0100   -3.3980   13.1790 c3        1 A2E     -0.080400
     30 C31        16.7910   -2.9330   12.4200 c3        1 A2E     -0.080400
     31 N27        19.1490   -6.1010   10.9400 nb        1 A2E     -0.670000
     32 C28        19.2580   -6.3560    9.5920 ca        1 A2E      0.406600
     33 C34        20.0280   -7.4880    9.1620 ca        1 A2E     -0.160300
     34 C29        18.6280   -5.5370    8.6090 ca        1 A2E     -0.168300
     35 C37        18.7680   -5.8820    7.2380 ca        1 A2E     -0.125000
     36 C36        19.5080   -6.9740    6.8570 ca        1 A2E     -0.125000
     37 C35        20.1460   -7.7800    7.8280 ca        1 A2E     -0.127000
     38 H8          1.2020    0.5210    2.1480 ha        1 A2E      0.187000
     39 H10         1.2720   -0.4650   -1.9770 hn        1 A2E      0.351500
     40 H61         3.1740    0.1080   -3.3470 hc        1 A2E      0.088200
     41 H62         4.0450   -1.3410   -2.6990 hc        1 A2E      0.088200
     42 H7          3.7010    0.7930    2.0710 ha        1 A2E      0.131000
     43 H3          5.6180    1.3210    0.3880 hx        1 A2E      0.103700
     44 H21         6.2870   -0.9780   -1.5470 hc        1 A2E      0.067200
     45 H22         6.9690    0.6940   -1.4040 hc        1 A2E      0.067200
     46 H11         4.8860    1.6410   -2.4060 hc        1 A2E      0.080700
     47 H12A        5.6470    0.4020   -3.4840 hc        1 A2E      0.080700
     48 H12         5.3170   -0.6800    1.8380 hn        1 A2E      0.446300
     49 H131        7.3410    0.6400    1.8260 hx        1 A2E      0.102700
     50 H132        7.9340   -0.3880    0.4330 hx        1 A2E      0.102700
     51 H141        7.2740   -1.4200    3.3070 hc        1 A2E      0.066200
     52 H142        7.8700   -2.4360    1.9280 hc        1 A2E      0.066200
     53 H151        9.9340   -1.0020    1.7680 hc        1 A2E      0.054200
     54 H152        9.3400    0.0100    3.1440 hc        1 A2E      0.054200
     55 H161        9.8920   -3.0390    3.2480 hc        1 A2E      0.048200
     56 H162        9.2940   -2.0290    4.6230 hc        1 A2E      0.048200
     57 H171       11.3610   -0.5970    4.4690 hc        1 A2E      0.045200
     58 H172       11.9600   -1.6080    3.0970 hc        1 A2E      0.045200
     59 H181       11.9200   -3.6440    4.5780 hc        1 A2E      0.043700
     60 H182       11.3160   -2.6360    5.9490 hc        1 A2E      0.043700
     61 H191       13.9860   -2.2100    4.4340 hc        1 A2E      0.043700
     62 H192       13.3800   -1.1990    5.8020 hc        1 A2E      0.043700
     63 H201       13.3320   -3.2380    7.2830 hc        1 A2E      0.043700
     64 H202       13.9470   -4.2440    5.9160 hc        1 A2E      0.043700
     65 H211       16.0080   -2.8010    5.7820 hc        1 A2E      0.048700
     66 H212       15.3920   -1.7920    7.1490 hc        1 A2E      0.048700
     67 H221       15.3030   -3.8440    8.6300 h1        1 A2E      0.037700
     68 H222       15.9140   -4.8560    7.2500 h1        1 A2E      0.037700
     69 H23        17.9050   -3.3660    7.3360 hn        1 A2E      0.373800
     70 H301       16.0470   -2.8710   10.4050 hc        1 A2E      0.057200
     71 H302       17.6370   -2.0450   10.6370 hc        1 A2E      0.057200
     72 H331       17.5020   -5.5040   13.2090 hc        1 A2E      0.066700
     73 H332       19.2710   -5.1460   13.3430 hc        1 A2E      0.066700
     74 H321       18.8860   -2.7430   12.9320 hc        1 A2E      0.049200
     75 H322       17.8300   -3.3190   14.2830 hc        1 A2E      0.049200
     76 H311       16.5200   -1.8900   12.7320 hc        1 A2E      0.042200
     77 H312       15.9190   -3.5930   12.6710 hc        1 A2E      0.042200
     78 H34        20.5210   -8.1140    9.9230 ha        1 A2E      0.153000
     79 H37        18.2720   -5.2760    6.4650 ha        1 A2E      0.122000
     80 H36        19.6120   -7.2350    5.7940 ha        1 A2E      0.133000
     81 H35        20.7380   -8.6470    7.4980 ha        1 A2E      0.138000
     82 H122        5.8550   -1.6410    0.6020 hn        1 A2E      0.446300
@<TRIPOS>BOND
     1    1    2 2
     2    2    3 1
     3    2    4 1
     4    3    8 2
     5    3   38 1
     6    4    5 1
     7    4   39 1
     8    5    6 1
     9    5    7 2
    10    6   11 1
    11    6   40 1
    12    6   41 1
    13    7    8 1
    14    7    9 1
    15    8   42 1
    16    9   10 1
    17    9   12 1
    18    9   43 1
    19   10   11 1
    20   10   44 1
    21   10   45 1
    22   11   46 1
    23   11   47 1
    24   12   13 1
    25   12   48 1
    26   12   82 1
    27   13   14 1
    28   13   49 1
    29   13   50 1
    30   14   15 1
    31   14   51 1
    32   14   52 1
    33   15   16 1
    34   15   53 1
    35   15   54 1
    36   16   17 1
    37   16   55 1
    38   16   56 1
    39   17   18 1
    40   17   57 1
    41   17   58 1
    42   18   19 1
    43   18   59 1
    44   18   60 1
    45   19   20 1
    46   19   61 1
    47   19   62 1
    48   20   21 1
    49   20   63 1
    50   20   64 1
    51   21   22 1
    52   21   65 1
    53   21   66 1
    54   22   23 1
    55   22   67 1
    56   22   68 1
    57   23   24 1
    58   23   69 1
    59   24   25 ar
    60   24   34 ar
    61   25   26 1
    62   25   27 ar
    63   26   30 1
    64   26   70 1
    65   26   71 1
    66   27   28 1
    67   27   31 ar
    68   28   29 1
    69   28   72 1
    70   28   73 1
    71   29   30 1
    72   29   74 1
    73   29   75 1
    74   30   76 1
    75   30   77 1
    76   31   32 ar
    77   32   33 ar
    78   32   34 ar
    79   33   37 ar
    80   33   78 1
    81   34   35 ar
    82   35   36 ar
    83   35   79 1
    84   36   37 ar
    85   36   80 1
    86   37   81 1
@<TRIPOS>SUBSTRUCTURE
     1 A2E         1 TEMP              0 ****  ****    0 ROOT
