@<TRIPOS>MOLECULE
A2F
   15    16     1     0     0
SMALL
bcc


@<TRIPOS>ATOM
      1 F            0.0000     0.0000     0.0000 f          1 A2F      -0.208200
      2 C2           1.3510     0.0000     0.0000 ca         1 A2F       0.768200
      3 N3           1.9850     0.0000     1.1540 nb         1 A2F      -0.565000
      4 N1           1.9880    -0.0070    -1.1600 nb         1 A2F      -0.634000
      5 C6           3.3170    -0.0080    -1.2130 ca         1 A2F       0.584200
      6 N6           3.9760    -0.0140    -2.4320 nv         1 A2F      -0.657500
      7 C5           4.0330    -0.0030    -0.0150 ca         1 A2F      -0.551800
      8 C4           3.3220    -0.0020     1.1960 ca         1 A2F       0.548300
      9 N7           5.3700    -0.0030     0.3270 na         1 A2F       0.305700
     10 C8           5.4360     0.0030     1.6770 cc         1 A2F       0.262700
     11 N9           4.2350     0.0030     2.1850 nd         1 A2F      -0.581700
     12 HN6          4.1960    -0.8830    -2.8770 hn         1 A2F       0.282800
     13 HN6A         4.1970     0.8500    -2.8850 hn         1 A2F       0.282800
     14 H8           6.3540     0.0080     2.2530 h5         1 A2F       0.032800
     15 HN7          6.1450    -0.0040    -0.3060 hn         1 A2F       0.131700
@<TRIPOS>BOND
     1     1     2 1   
     2     2     3 ar  
     3     2     4 ar  
     4     3     8 ar  
     5     4     5 ar  
     6     5     6 1   
     7     5     7 ar  
     8     6    12 1   
     9     6    13 1   
    10     7     8 ar  
    11     7     9 1   
    12     8    11 1   
    13     9    10 1   
    14     9    15 1   
    15    10    11 2   
    16    10    14 1   
@<TRIPOS>SUBSTRUCTURE
     1 A2F         1 TEMP              0 ****  ****    0 ROOT
