@<TRIPOS>MOLECULE
molecule
   48    50     1     0     0
SMALL
bcc


@<TRIPOS>ATOM
      1 C11          0.0000     0.0000     0.0000 ca         1 A2I      -0.116000
      2 C14          1.3910     0.0000     2.3940 ca         1 A2I      -0.133000
      3 N15         -0.6950     0.0010     3.6100 ns         1 A2I      -0.474100
      4 C16         -1.8600    -0.6700     3.7190 c          1 A2I       0.673100
      5 C22         -4.3940    -0.9460     8.7000 ca         1 A2I       0.481100
      6 C23         -5.5820    -1.5700     9.0470 ca         1 A2I      -0.394600
      7 C24         -6.2910    -2.2400     8.0630 ca         1 A2I       0.481100
      8 C1           8.1500    -1.8910     1.1760 ca         1 A2I      -0.168000
      9 C2           7.3080    -2.9880     1.1780 ca         1 A2I      -0.091500
     10 C3           5.9380    -2.8090     1.1830 ca         1 A2I      -0.191000
     11 C4           5.4070    -1.5270     1.1850 ca         1 A2I       0.142100
     12 C5           6.2540    -0.4280     1.1820 ca         1 A2I      -0.191000
     13 C6           7.6220    -0.6120     1.1780 ca         1 A2I      -0.091500
     14 C8           3.5840    -0.0010     1.1910 c3         1 A2I       0.189700
     15 C9           2.0770     0.0000     1.1960 ca         1 A2I      -0.081300
     16 C10          1.3820     0.0000     0.0000 ca         1 A2I      -0.117000
     17 C12         -0.6920     0.0000     1.1960 ca         1 A2I      -0.115000
     18 C13          0.0030     0.0010     2.3980 ca         1 A2I       0.047600
     19 O17         -2.3450    -1.2030     2.7430 o          1 A2I      -0.580100
     20 C18         -2.5590    -0.7560     5.0510 c3         1 A2I      -0.110300
     21 S19         -4.0840    -1.7140     4.8710 ss         1 A2I      -0.151400
     22 C20         -4.6780    -1.6570     6.5290 ca         1 A2I       0.775300
     23 N21         -3.9750    -1.0080     7.4460 nb         1 A2I      -0.750000
     24 N25         -5.8180    -2.2640     6.8290 nb         1 A2I      -0.750000
     25 C27         -3.5920    -0.2000     9.7350 c3         1 A2I      -0.144900
     26 H111        -0.5410    -0.0000    -0.9380 ha         1 A2I       0.138000
     27 H141         1.9350     0.0430     3.3300 ha         1 A2I       0.133000
     28 H151        -0.3430     0.5190     4.3900 hn         1 A2I       0.325500
     29 H231        -5.9470    -1.5350    10.0660 ha         1 A2I       0.146000
     30 H021         7.7220    -3.9890     1.1770 ha         1 A2I       0.131000
     31 H031         5.2790    -3.6680     1.1860 ha         1 A2I       0.138500
     32 H051         5.8420     0.5730     1.1840 ha         1 A2I       0.138500
     33 H061         8.2840     0.2460     1.1750 ha         1 A2I       0.131000
     34 H082         3.9420     0.5100     0.3060 h1         1 A2I       0.040700
     35 H081         3.9480     0.5100     2.0750 h1         1 A2I       0.040700
     36 H101         1.9230    -0.0000    -0.9390 ha         1 A2I       0.135000
     37 H121        -1.7750     0.0010     1.1960 ha         1 A2I       0.168000
     38 H182        -2.7980     0.2420     5.3980 h1         1 A2I       0.094700
     39 H181        -1.9090    -1.2420     5.7690 h1         1 A2I       0.094700
     40 H273        -2.7460     0.2800     9.2590 hc         1 A2I       0.057367
     41 H271        -3.2370    -0.8950    10.4860 hc         1 A2I       0.057367
     42 H272        -4.2170     0.5500    10.2040 hc         1 A2I       0.057367
     43 C26         -7.5880    -2.9340     8.3960 c3         1 A2I      -0.144900
     44 O7           4.0600    -1.3480     1.1900 os         1 A2I      -0.322900
     45 H011         9.2240    -2.0340     1.1720 ha         1 A2I       0.130000
     46 H261        -7.4080    -3.6940     9.1480 hc         1 A2I       0.057367
     47 H263        -8.2970    -2.2100     8.7770 hc         1 A2I       0.057367
     48 H262        -7.9890    -3.3980     7.5030 hc         1 A2I       0.057367
@<TRIPOS>BOND
     1     9    10 ar
     2     9     8 ar
     3    10    11 ar
     4     8    13 ar
     5    11    44 1
     6    11    12 ar
     7     1    16 ar
     8     1    17 ar
     9    16    15 ar
    10    44    14 1
    11    13    12 ar
    12    17    18 ar
    13    15    14 1
    14    15     2 ar
    15    25     5 1
    16    18     2 ar
    17    18     3 1
    18     5     6 ar
    19     5    23 ar
    20     6     7 ar
    21     3     4 1
    22    23    22 ar
    23     7    43 1
    24     7    24 ar
    25     4    19 2
    26     4    20 1
    27    22    24 ar
    28    22    21 1
    29    20    21 1
    30     1    26 1
    31     2    27 1
    32     3    28 1
    33     6    29 1
    34     8    45 1
    35     9    30 1
    36    10    31 1
    37    12    32 1
    38    13    33 1
    39    14    34 1
    40    14    35 1
    41    16    36 1
    42    17    37 1
    43    20    38 1
    44    20    39 1
    45    43    46 1
    46    43    47 1
    47    43    48 1
    48    25    40 1
    49    25    41 1
    50    25    42 1
@<TRIPOS>SUBSTRUCTURE
     1 A2I         1 TEMP              0 ****  ****    0 ROOT
