@<TRIPOS>MOLECULE
A2J
   20    21     1     0     0
SMALL
bcc


@<TRIPOS>ATOM
      1 C4           0.0000     0.0000     0.0000 ca         1 A2J      -0.003600
      2 N2           1.3480     0.0000     0.0000 nc         1 A2J      -0.308100
      3 C7           1.3140    -0.0020     2.4020 c          1 A2J       0.493200
      4 C6          -2.1070    -0.0020     1.1890 ca         1 A2J      -0.159000
      5 C8           2.0190     0.0000     1.1160 cd         1 A2J       0.171300
      6 C1          -2.7730    -0.0020    -0.0170 ca         1 A2J      -0.019000
      7 C2          -2.0670    -0.0110    -1.2120 ca         1 A2J      -0.141000
      8 C3          -0.7020    -0.0050    -1.2150 ca         1 A2J       0.002000
      9 C5          -0.7160    -0.0020     1.2110 ca         1 A2J      -0.081400
     10 N1          -0.0370    -0.0020     2.4140 ns         1 A2J       0.053900
     11 O1           1.9390    -0.0030     3.4480 o          1 A2J      -0.640500
     12 F1           4.0050    -1.1420     1.7350 f          1 A2J      -0.200633
     13 F2           3.9650     0.0010    -0.2420 f          1 A2J      -0.200633
     14 F3           4.0050     1.1430     1.7370 f          1 A2J      -0.200633
     15 H5          -2.6640     0.0050     2.1180 ha         1 A2J       0.118000
     16 H2          -3.8560    -0.0070    -0.0330 ha         1 A2J       0.107000
     17 H3          -2.6040    -0.0110    -2.1530 ha         1 A2J       0.115000
     18 H4          -0.1620    -0.0120    -2.1540 ha         1 A2J       0.122000
     19 H1          -0.5380    -0.0030     3.2800 hn         1 A2J       0.187500
     20 C9           3.5260     0.0000     1.0860 c3         1 A2J       0.583600
@<TRIPOS>BOND
     1     1     2 1   
     2     1     8 ar  
     3     1     9 ar  
     4     2     5 2   
     5     3     5 1   
     6     3    10 1   
     7     3    11 2   
     8     4     6 ar  
     9     4     9 ar  
    10     4    15 1   
    11     5    20 1   
    12     6     7 ar  
    13     6    16 1   
    14     7     8 ar  
    15     7    17 1   
    16     8    18 1   
    17     9    10 1   
    18    10    19 1   
    19    12    20 1   
    20    13    20 1   
    21    14    20 1   
@<TRIPOS>SUBSTRUCTURE
     1 A2J         1 TEMP              0 ****  ****    0 ROOT
