@<TRIPOS>MOLECULE
molecule
   20    21     1     0     0
SMALL
bcc


@<TRIPOS>ATOM
      1 C4           0.0000     0.0000     0.0000 ca         1 A2J       0.052400
      2 N2           1.3480     0.0000     0.0000 nc         1 A2J      -0.462100
      3 C7           1.3140    -0.0020     2.4020 c          1 A2J       0.577200
      4 C6          -2.1070    -0.0020     1.1890 ca         1 A2J      -0.187000
      5 C8           2.0190     0.0000     1.1160 cd         1 A2J       0.271300
      6 C1          -2.7730    -0.0020    -0.0170 ca         1 A2J      -0.055000
      7 C2          -2.0670    -0.0110    -1.2120 ca         1 A2J      -0.168000
      8 C3          -0.7020    -0.0050    -1.2150 ca         1 A2J      -0.028000
      9 C5          -0.7160    -0.0020     1.2110 ca         1 A2J       0.069600
     10 N1          -0.0370    -0.0020     2.4140 ns         1 A2J      -0.417100
     11 O1           1.9390    -0.0030     3.4480 o          1 A2J      -0.598500
     12 F1           4.0050    -1.1420     1.7350 f          1 A2J      -0.206967
     13 F2           3.9650     0.0010    -0.2420 f          1 A2J      -0.206967
     14 F3           4.0050     1.1430     1.7370 f          1 A2J      -0.206967
     15 H5          -2.6640     0.0050     2.1180 ha         1 A2J       0.143000
     16 H2          -3.8560    -0.0070    -0.0330 ha         1 A2J       0.142000
     17 H3          -2.6040    -0.0110    -2.1530 ha         1 A2J       0.145000
     18 H4          -0.1620    -0.0120    -2.1540 ha         1 A2J       0.160000
     19 H1          -0.5380    -0.0030     3.2800 hn         1 A2J       0.351500
     20 C9           3.5260     0.0000     1.0860 c3         1 A2J       0.624600
@<TRIPOS>BOND
     1     7     6 ar
     2     7     8 ar
     3     6     4 ar
     4     8     1 ar
     5     4     9 ar
     6     1     9 ar
     7     1     2 1
     8     9    10 1
     9     2     5 2
    10     5    20 1
    11     5     3 1
    12    12    20 1
    13    10     3 1
    14    14    20 1
    15    20    13 1
    16     3    11 2
    17     4    15 1
    18     6    16 1
    19     7    17 1
    20     8    18 1
    21    10    19 1
@<TRIPOS>SUBSTRUCTURE
     1 A2J         1 TEMP              0 ****  ****    0 ROOT
