@<TRIPOS>MOLECULE
A2K
   75    81     1     0     0
SMALL
bcc


@<TRIPOS>ATOM
      1 O33         0.0750    0.8310   -0.1420 o         1 A2K     -0.535100
      2 C1          1.3060    0.7080   -0.1110 c         1 A2K      0.568300
      3 C4          2.0200    0.2760    1.0970 ce        1 A2K     -0.255200
      4 C20         3.3650    0.2510    1.1780 cf        1 A2K     -0.000200
      5 C6          4.0470   -0.2200    2.4160 c3        1 A2K     -0.055200
      6 C19         4.2260    0.6770    0.0700 cf        1 A2K     -0.100200
      7 C5          3.5240    1.5030   -0.9580 c3        1 A2K     -0.038200
      8 C3          2.1590    0.9560   -1.3210 c3        1 A2K     -0.179400
      9 C8          5.5500    0.3840    0.0340 c2        1 A2K     -0.068400
     10 C11         6.4040    0.8160   -1.1290 c3        1 A2K      0.019800
     11 C10         7.6650   -0.0150   -1.4120 c3        1 A2K     -0.060400
     12 C12         8.3340   -0.5710   -0.1700 c3        1 A2K     -0.036000
     13 C16         9.0210    0.5340    0.6140 c3        1 A2K     -0.094100
     14 C13         7.2440   -1.3100    0.6310 c3        1 A2K     -0.061700
     15 C14         8.0140   -2.1790    1.6140 c3        1 A2K     -0.067400
     16 C9          6.2100   -0.3460    1.1730 c3        1 A2K     -0.018500
     17 C7          5.2230   -1.0970    2.0550 c3        1 A2K     -0.073400
     18 C15         9.3430   -1.7180   -0.4250 c3        1 A2K     -0.151700
     19 C22        10.7290   -1.2320   -0.7670 c         1 A2K      0.610100
     20 O24        11.6310   -1.1330    0.0720 o         1 A2K     -0.536100
     21 C23        10.9410   -0.9010   -2.2000 cx        1 A2K     -0.254700
     22 C31        12.1520   -1.4680   -2.9060 cx        1 A2K     -0.102900
     23 C30        12.0950   -0.0080   -2.5910 cx        1 A2K     -0.102900
     24 C2          9.3050   -2.5700    0.8680 c3        1 A2K     -0.033500
     25 C39         9.3240   -4.0230    0.5510 c2        1 A2K     -0.170200
     26 C40        10.2990   -4.8490    0.9230 c2        1 A2K     -0.210000
     27 C21         6.7370    2.2800   -1.0770 ca        1 A2K     -0.068300
     28 C29         6.6330    3.0390    0.0930 ca        1 A2K     -0.128500
     29 C28         6.9420    4.3970    0.0900 ca        1 A2K     -0.115000
     30 C27         7.3660    5.0290   -1.0870 cp        1 A2K     -0.036000
     31 C26         7.4680    4.2700   -2.2620 ca        1 A2K     -0.115000
     32 C25         7.1560    2.9150   -2.2560 ca        1 A2K     -0.128500
     33 C32         7.6910    6.4490   -1.0910 cp        1 A2K     -0.152300
     34 C38         6.9260    7.3700   -0.3370 ca        1 A2K      0.404200
     35 N37         7.1740    8.6910   -0.2960 nb        1 A2K     -0.662000
     36 C36         8.2140    9.1510   -1.0190 ca        1 A2K      0.395200
     37 C35         9.0370    8.3210   -1.8030 ca        1 A2K     -0.245300
     38 C34         8.7670    6.9540   -1.8360 ca        1 A2K     -0.084000
     39 H4          1.3860   -0.0340    1.9430 ha        1 A2K      0.150000
     40 H31C        2.2680   -0.0200   -1.8660 hc        1 A2K      0.073200
     41 H32C        1.6390    1.6710   -2.0110 hc        1 A2K      0.073200
     42 H61C        3.3340   -0.7870    3.0720 hc        1 A2K      0.058700
     43 H62C        4.3990    0.6750    2.9990 hc        1 A2K      0.058700
     44 H71C        5.7490   -1.4350    2.9860 hc        1 A2K      0.051700
     45 H72C        4.8600   -2.0160    1.5230 hc        1 A2K      0.051700
     46 H51C        3.4080    2.5420   -0.5380 hc        1 A2K      0.059200
     47 H52C        4.1230    1.6050   -1.8990 hc        1 A2K      0.059200
     48 H11         5.7730    0.6690   -2.0630 hc        1 A2K      0.061700
     49 H9          6.7200    0.4310    1.8150 hc        1 A2K      0.066700
     50 H101        7.3740   -0.8730   -2.0770 hc        1 A2K      0.047200
     51 H102        8.3950    0.6180   -1.9830 hc        1 A2K      0.047200
     52 H161        8.3120    1.3660    0.8390 hc        1 A2K      0.046033
     53 H162        9.8680    0.9550    0.0170 hc        1 A2K      0.046033
     54 H163        9.4320    0.1320    1.5710 hc        1 A2K      0.046033
     55 H13         6.7100   -2.0070   -0.0810 hc        1 A2K      0.052700
     56 H15         8.9720   -2.3400   -1.2870 hc        1 A2K      0.069700
     57 H141        8.2620   -1.6110    2.5440 hc        1 A2K      0.049700
     58 H142        7.4200   -3.0790    1.9090 hc        1 A2K      0.049700
     59 H2         10.1930   -2.3000    1.5050 hc        1 A2K      0.082700
     60 H23         9.9950   -0.8150   -2.7700 hc        1 A2K      0.090700
     61 H311       12.0380   -1.8050   -3.9510 hc        1 A2K      0.080950
     62 H312       12.8430   -2.1100   -2.3300 hc        1 A2K      0.080950
     63 H301       11.9420    0.7210   -3.4060 hc        1 A2K      0.080950
     64 H302       12.7400    0.3880   -1.7840 hc        1 A2K      0.080950
     65 H39         8.4530   -4.3850   -0.0200 ha        1 A2K      0.117000
     66 H401       11.1780   -4.5160    1.4920 ha        1 A2K      0.115500
     67 H402       10.2830   -5.9190    0.6790 ha        1 A2K      0.115500
     68 H29         6.2980    2.5630    1.0280 ha        1 A2K      0.136000
     69 H25         7.2340    2.3350   -3.1880 ha        1 A2K      0.136000
     70 H28         6.8610    4.9760    1.0230 ha        1 A2K      0.136500
     71 H26         7.7890    4.7540   -3.1980 ha        1 A2K      0.136500
     72 H38         6.0620    7.0240    0.2600 h4        1 A2K      0.025100
     73 H34         9.3940    6.2750   -2.4330 ha        1 A2K      0.141000
     74 H36         8.3930   10.2390   -0.9640 h4        1 A2K      0.024100
     75 H35         9.8730    8.7460   -2.3730 ha        1 A2K      0.144000
@<TRIPOS>BOND
     1    1    2 2   
     2    2    3 1   
     3    2    8 1   
     4    3    4 2   
     5    3   39 1   
     6    4    5 1   
     7    4    6 1   
     8    5   17 1   
     9    5   42 1   
    10    5   43 1   
    11    6    7 1   
    12    6    9 2   
    13    7    8 1   
    14    7   46 1   
    15    7   47 1   
    16    8   40 1   
    17    8   41 1   
    18    9   10 1   
    19    9   16 1   
    20   10   11 1   
    21   10   27 1   
    22   10   48 1   
    23   11   12 1   
    24   11   50 1   
    25   11   51 1   
    26   12   13 1   
    27   12   14 1   
    28   12   18 1   
    29   13   52 1   
    30   13   53 1   
    31   13   54 1   
    32   14   15 1   
    33   14   16 1   
    34   14   55 1   
    35   15   24 1   
    36   15   57 1   
    37   15   58 1   
    38   16   17 1   
    39   16   49 1   
    40   17   44 1   
    41   17   45 1   
    42   18   19 1   
    43   18   24 1   
    44   18   56 1   
    45   19   20 2   
    46   19   21 1   
    47   21   22 1   
    48   21   23 1   
    49   21   60 1   
    50   22   23 1   
    51   22   61 1   
    52   22   62 1   
    53   23   63 1   
    54   23   64 1   
    55   24   25 1   
    56   24   59 1   
    57   25   26 2   
    58   25   65 1   
    59   26   66 1   
    60   26   67 1   
    61   27   28 ar  
    62   27   32 ar  
    63   28   29 ar  
    64   28   68 1   
    65   29   30 ar  
    66   29   70 1   
    67   30   31 ar  
    68   30   33 1   
    69   31   32 ar  
    70   31   71 1   
    71   32   69 1   
    72   33   34 ar  
    73   33   38 ar  
    74   34   35 ar  
    75   34   72 1   
    76   35   36 ar  
    77   36   37 ar  
    78   36   74 1   
    79   37   38 ar  
    80   37   75 1   
    81   38   73 1   
@<TRIPOS>SUBSTRUCTURE
     1 A2K         1 TEMP              0 ****  ****    0 ROOT
