@<TRIPOS>MOLECULE
molecule
   75    81     1     0     0
SMALL
bcc


@<TRIPOS>ATOM
      1 O33          0.0000     0.0000     0.0000 o          1 A2K      -0.536100
      2 C1           1.2150     0.0000     0.0000 c          1 A2K       0.570300
      3 C4           1.9060     0.0000     1.2230 ce         1 A2K      -0.260200
      4 C20          3.2480     0.1450     1.2540 cf         1 A2K       0.001800
      5 C6           4.0250     0.0680     2.5450 c3         1 A2K      -0.048200
      6 C19          3.9890     0.4320     0.0260 cf         1 A2K      -0.117200
      7 C5           3.2150     0.8620    -1.1990 c3         1 A2K      -0.039200
      8 C3           1.9540    -0.0060    -1.3120 c3         1 A2K      -0.176400
      9 C8           5.3160     0.3130    -0.0190 c2         1 A2K      -0.074400
     10 C11          6.0040     0.6650    -1.3240 c3         1 A2K       0.002800
     11 C10          7.0920    -0.3630    -1.6660 c3         1 A2K      -0.060400
     12 C12          7.9790    -0.5020    -0.4390 c3         1 A2K      -0.054000
     13 C16          8.4410     0.8790     0.0280 c3         1 A2K      -0.125100
     14 C13          7.1280    -1.1790     0.6670 c3         1 A2K      -0.061700
     15 C14          8.2010    -1.5800     1.6880 c3         1 A2K      -0.068400
     16 C9           6.1270    -0.1460     1.1660 c3         1 A2K      -0.024500
     17 C7           5.2870    -0.7510     2.2790 c3         1 A2K      -0.073400
     18 C15          9.1830    -1.4280    -0.5970 c3         1 A2K      -0.148700
     19 C22         10.4090    -0.6310    -0.9620 c          1 A2K       0.616100
     20 O24         11.1600    -0.2500    -0.0970 o          1 A2K      -0.532100
     21 C23         10.6980    -0.3110    -2.4060 cx         1 A2K      -0.257700
     22 C31         12.1630    -0.1630    -2.8180 cx         1 A2K      -0.110400
     23 C30         11.2670     1.0740    -2.7220 cx         1 A2K      -0.110400
     24 C2           9.3570    -2.1040     0.7940 c3         1 A2K      -0.032500
     25 C39          9.2710    -3.6030     0.6660 c2         1 A2K      -0.174200
     26 C40         10.2760    -4.3530     1.0480 c2         1 A2K      -0.214000
     27 C21          6.6320     2.0290    -1.2000 ca         1 A2K      -0.055300
     28 C29          6.2620     2.8650    -0.1620 ca         1 A2K      -0.134000
     29 C28          6.8350     4.1160    -0.0420 ca         1 A2K      -0.114000
     30 C27          7.7870     4.5340    -0.9700 cp         1 A2K      -0.039000
     31 C26          8.1540     3.6870    -2.0130 ca         1 A2K      -0.114000
     32 C25          7.5800     2.4380    -2.1190 ca         1 A2K      -0.134000
     33 C32          8.4050     5.8780    -0.8480 cp         1 A2K      -0.157300
     34 C38          8.0430     6.7310     0.1920 ca         1 A2K       0.427200
     35 N37          8.5920     7.9240     0.3010 nb         1 A2K      -0.686000
     36 C36          9.4960     8.3560    -0.5570 ca         1 A2K       0.418200
     37 C35          9.9090     7.5680    -1.6140 ca         1 A2K      -0.251300
     38 C34          9.3650     6.3040    -1.7700 ca         1 A2K      -0.088000
     39 H4           1.3570    -0.1170     2.1500 ha         1 A2K       0.153000
     40 H31C         1.3120     0.3930    -2.0880 hc         1 A2K       0.071200
     41 H32C         2.2390    -1.0220    -1.5590 hc         1 A2K       0.071200
     42 H61C         4.2980     1.0650     2.8680 hc         1 A2K       0.060200
     43 H62C         3.4260    -0.4190     3.3040 hc         1 A2K       0.060200
     44 H71C         5.8790    -0.7890     3.1850 hc         1 A2K       0.051700
     45 H72C         5.0000    -1.7570     1.9960 hc         1 A2K       0.051700
     46 H51C         2.9320     1.9030    -1.1020 hc         1 A2K       0.061200
     47 H52C         3.8290     0.7270    -2.0810 hc         1 A2K       0.061200
     48 H11          5.2680     0.6780    -2.1190 hc         1 A2K       0.078700
     49 H9           6.6710     0.7020     1.5640 hc         1 A2K       0.074700
     50 H101         6.6360    -1.3180    -1.9000 hc         1 A2K       0.050200
     51 H102         7.6790    -0.0120    -2.5060 hc         1 A2K       0.050200
     52 H161         8.9050     1.4030    -0.7980 hc         1 A2K       0.056700
     53 H162         9.1570     0.7670     0.8330 hc         1 A2K       0.056700
     54 H163         7.5870     1.4450     0.3810 hc         1 A2K       0.056700
     55 H13          6.6210    -2.0540     0.2780 hc         1 A2K       0.063700
     56 H15          8.9790    -2.1780    -1.3520 hc         1 A2K       0.071700
     57 H141         7.8350    -2.3660     2.3380 hc         1 A2K       0.053700
     58 H142         8.5230    -0.7190     2.2610 hc         1 A2K       0.053700
     59 H2          10.3100    -1.8200     1.2230 hc         1 A2K       0.083700
     60 H23         10.0510    -0.7210    -3.1720 hc         1 A2K       0.086700
     61 H311        12.4020    -0.4900    -3.8220 hc         1 A2K       0.083200
     62 H312        12.8870    -0.2780    -2.0200 hc         1 A2K       0.083200
     63 H301        10.9580     1.5010    -3.6690 hc         1 A2K       0.083200
     64 H302        11.4430     1.7140    -1.8660 hc         1 A2K       0.083200
     65 H39          8.3790    -4.0620     0.2580 ha         1 A2K       0.121000
     66 H401        10.2140    -5.4300     0.9560 ha         1 A2K       0.114500
     67 H402        11.1690    -3.8950     1.4570 ha         1 A2K       0.114500
     68 H29          5.5220     2.5390     0.5590 ha         1 A2K       0.139000
     69 H25          7.8650     1.7790    -2.9310 ha         1 A2K       0.139000
     70 H28          6.5450     4.7710     0.7710 ha         1 A2K       0.134500
     71 H26          8.8950     4.0070    -2.7360 ha         1 A2K       0.134500
     72 H38          7.3040     6.4120     0.9170 h4         1 A2K       0.026100
     73 H34          9.6700     5.6640    -2.5890 ha         1 A2K       0.139000
     74 H36          9.9210     9.3450    -0.4310 h4         1 A2K       0.023100
     75 H35         10.6540     7.9320    -2.3110 ha         1 A2K       0.139000
@<TRIPOS>BOND
     1     1     2 2
     2     2     3 1
     3     2     8 1
     4     3     4 2
     5     4     5 1
     6     4     6 1
     7     5    17 1
     8     6     7 1
     9     6     9 2
    10     7     8 1
    11     9    10 1
    12     9    16 1
    13    10    11 1
    14    10    27 1
    15    11    12 1
    16    12    13 1
    17    12    14 1
    18    12    18 1
    19    14    15 1
    20    14    16 1
    21    15    24 1
    22    16    17 1
    23    18    19 1
    24    18    24 1
    25    19    20 2
    26    19    21 1
    27    21    22 1
    28    21    23 1
    29    22    23 1
    30    24    25 1
    31    25    26 2
    32    27    28 ar
    33    27    32 ar
    34    28    29 ar
    35    29    30 ar
    36    30    31 ar
    37    30    33 1
    38    31    32 ar
    39    33    34 ar
    40    33    38 ar
    41    34    35 ar
    42    35    36 ar
    43    36    37 ar
    44    37    38 ar
    45     3    39 1
    46     8    40 1
    47     8    41 1
    48     5    42 1
    49     5    43 1
    50    17    44 1
    51    17    45 1
    52     7    46 1
    53     7    47 1
    54    10    48 1
    55    16    49 1
    56    11    50 1
    57    11    51 1
    58    13    52 1
    59    13    53 1
    60    13    54 1
    61    14    55 1
    62    18    56 1
    63    15    57 1
    64    15    58 1
    65    24    59 1
    66    21    60 1
    67    22    61 1
    68    22    62 1
    69    23    63 1
    70    23    64 1
    71    25    65 1
    72    26    66 1
    73    26    67 1
    74    28    68 1
    75    32    69 1
    76    29    70 1
    77    31    71 1
    78    34    72 1
    79    38    73 1
    80    36    74 1
    81    37    75 1
@<TRIPOS>SUBSTRUCTURE
     1 A2K         1 TEMP              0 ****  ****    0 ROOT
