@<TRIPOS>MOLECULE
molecule
   47    49     1     0     0
SMALL
bcc


@<TRIPOS>ATOM
      1 C1           0.0000     0.0000     0.0000 ca         1 A2O       0.067600
      2 C2           1.3890     0.0000     0.0000 ca         1 A2O      -0.116300
      3 C3          -0.6940    -0.0020     1.2030 ca         1 A2O      -0.152000
      4 C4          -0.0020    -0.0040     2.3980 ca         1 A2O      -0.132000
      5 C5           1.3860    -0.0030     2.3980 ca         1 A2O       0.101600
      6 C6          -2.9940    -0.8300    -1.0310 c3         1 A2O      -0.108400
      7 C7           2.0810     0.0000     1.1940 ca         1 A2O      -0.116000
      8 C9           2.1380     0.0030    -1.3070 c3         1 A2O      -0.031100
      9 C10         -0.1090    -5.1470     6.1900 ca         1 A2O      -0.124500
     10 C11          0.8260    -5.5950     7.1030 ca         1 A2O      -0.117000
     11 C12          1.3560    -0.8020    -2.3460 c3         1 A2O      -0.152400
     12 C13         -0.0840    -0.3670    -2.3540 c          1 A2O       0.703500
     13 C14         -4.4640    -0.4070    -1.0610 c3         1 A2O      -0.091100
     14 C15          1.9230    -2.6850     4.1750 c3         1 A2O      -0.163300
     15 C16          1.5360    -3.7100     5.2090 ca         1 A2O      -0.093300
     16 C17          2.4730    -4.1620     6.1190 ca         1 A2O      -0.108000
     17 C18          0.2460    -4.2060     5.2410 ca         1 A2O      -0.108000
     18 C19          2.1180    -5.1040     7.0670 ca         1 A2O      -0.124500
     19 N1           2.0860    -0.0040     3.6090 nu         1 A2O      -0.771500
     20 N2          -0.6980    -0.0050    -1.2140 n          1 A2O      -0.373000
     21 O1           0.2300    -0.7850     4.9740 o          1 A2O      -0.624300
     22 O2          -0.7010    -0.3510    -3.3970 o          1 A2O      -0.628500
     23 O3           2.5270    -0.7310     5.8890 o          1 A2O      -0.624300
     24 S1           1.6240    -1.0200     4.8310 s6         1 A2O       1.329900
     25 H1          -1.7770    -0.0030     1.2030 ha         1 A2O       0.149000
     26 H2          -0.5430    -0.0060     3.3370 ha         1 A2O       0.189000
     27 H3          -2.8050    -1.5380    -1.8290 hc         1 A2O       0.052200
     28 H4          -2.7700    -1.2920    -0.0770 hc         1 A2O       0.052200
     29 H5           3.1640     0.0010     1.1940 ha         1 A2O       0.138000
     30 H6          -2.3340     0.8480    -2.2020 h1         1 A2O       0.067200
     31 H7          -2.2920     1.1180    -0.4540 h1         1 A2O       0.067200
     32 H8           3.1130    -0.4470    -1.1640 hc         1 A2O       0.059700
     33 H9           2.2520     1.0230    -1.6540 hc         1 A2O       0.059700
     34 H11          0.5470    -6.3320     7.8460 ha         1 A2O       0.133000
     35 H12          1.7870    -0.6350    -3.3260 hc         1 A2O       0.078200
     36 H13          1.4110    -1.8550    -2.0980 hc         1 A2O       0.078200
     37 H14         -4.6480     0.3140    -0.2740 hc         1 A2O       0.037033
     38 H15         -4.6920     0.0390    -2.0210 hc         1 A2O       0.037033
     39 H16         -5.0920    -1.2760    -0.9080 hc         1 A2O       0.037033
     40 H17          1.3300    -2.8320     3.2810 h1         1 A2O       0.105200
     41 H18          2.9740    -2.7940     3.9340 h1         1 A2O       0.105200
     42 H19          3.4850    -3.7770     6.0900 ha         1 A2O       0.138000
     43 H20         -0.4880    -3.8550     4.5250 ha         1 A2O       0.138000
     44 H21          2.8520    -5.4570     7.7820 ha         1 A2O       0.135000
     45 H22          2.8450     0.6340     3.7490 hn         1 A2O       0.465800
     46 C8          -2.1060     0.3990    -1.2420 c3         1 A2O       0.100000
     47 H10         -1.1200    -5.5340     6.2160 ha         1 A2O       0.135000
@<TRIPOS>BOND
     1    13     6 1
     2     6    46 1
     3    22    12 2
     4    46    20 1
     5    12    20 1
     6    12    11 1
     7    20     1 1
     8     1     3 ar
     9     1     2 ar
    10    11     8 1
    11     3     4 ar
    12     8     2 1
    13     2     7 ar
    14     4     5 ar
    15     7     5 ar
    16     5    19 1
    17    18    16 ar
    18    18    10 ar
    19    19    24 1
    20    16    15 ar
    21    10     9 ar
    22    23    24 2
    23    15    14 1
    24    15    17 ar
    25    24    14 1
    26    24    21 2
    27     9    17 ar
    28     3    25 1
    29     4    26 1
    30     6    27 1
    31     6    28 1
    32     7    29 1
    33    46    30 1
    34    46    31 1
    35     8    32 1
    36     8    33 1
    37     9    47 1
    38    10    34 1
    39    11    35 1
    40    11    36 1
    41    13    37 1
    42    13    38 1
    43    13    39 1
    44    14    40 1
    45    14    41 1
    46    16    42 1
    47    17    43 1
    48    18    44 1
    49    19    45 1
@<TRIPOS>SUBSTRUCTURE
     1 A2O         1 TEMP              0 ****  ****    0 ROOT
