@<TRIPOS>MOLECULE
A2O
   47    49     1     0     0
SMALL
bcc


@<TRIPOS>ATOM
      1 C1           0.0000     0.0000     0.0000 ca         1 A2O      -0.075400
      2 C2           1.3890     0.0000     0.0000 ca         1 A2O      -0.114300
      3 C3          -0.6940    -0.0020     1.2030 ca         1 A2O      -0.125000
      4 C4          -0.0020    -0.0040     2.3980 ca         1 A2O      -0.124000
      5 C5           1.3860    -0.0030     2.3980 ca         1 A2O       0.029600
      6 C6          -2.9940    -0.8300    -1.0310 c3         1 A2O      -0.055400
      7 C7           2.0810     0.0000     1.1940 ca         1 A2O      -0.101000
      8 C9           2.1380     0.0030    -1.3070 c3         1 A2O       0.040900
      9 C10         -0.1090    -5.1470     6.1900 ca         1 A2O      -0.095000
     10 C11          0.8260    -5.5950     7.1030 ca         1 A2O      -0.092000
     11 C12          1.3560    -0.8020    -2.3460 c3         1 A2O      -0.095400
     12 C13         -0.0840    -0.3670    -2.3540 c          1 A2O       0.613500
     13 C14         -4.4640    -0.4070    -1.0610 c3         1 A2O       0.011900
     14 C15          1.9230    -2.6850     4.1750 c3         1 A2O       0.061700
     15 C16          1.5360    -3.7100     5.2090 ca         1 A2O      -0.091300
     16 C17          2.4730    -4.1620     6.1190 ca         1 A2O      -0.084000
     17 C18          0.2460    -4.2060     5.2410 ca         1 A2O      -0.084000
     18 C19          2.1180    -5.1040     7.0670 ca         1 A2O      -0.095000
     19 N1           2.0860    -0.0040     3.6090 nu         1 A2O      -0.411500
     20 N2          -0.6980    -0.0050    -1.2140 n          1 A2O       0.022000
     21 O1           0.2300    -0.7850     4.9740 o          1 A2O      -0.579800
     22 O2          -0.7010    -0.3510    -3.3970 o          1 A2O      -0.671500
     23 O3           2.5270    -0.7310     5.8890 o          1 A2O      -0.579800
     24 S1           1.6240    -1.0200     4.8310 s6         1 A2O       0.953900
     25 H1          -1.7770    -0.0030     1.2030 ha         1 A2O       0.126000
     26 H2          -0.5430    -0.0060     3.3370 ha         1 A2O       0.173000
     27 H3          -2.8050    -1.5380    -1.8290 hc         1 A2O       0.023700
     28 H4          -2.7700    -1.2920    -0.0770 hc         1 A2O       0.023700
     29 H5           3.1640     0.0010     1.1940 ha         1 A2O       0.111000
     30 H6          -2.3340     0.8480    -2.2020 h1         1 A2O       0.041200
     31 H7          -2.2920     1.1180    -0.4540 h1         1 A2O       0.041200
     32 H8           3.1130    -0.4470    -1.1640 hc         1 A2O       0.025200
     33 H9           2.2520     1.0230    -1.6540 hc         1 A2O       0.025200
     34 H11          0.5470    -6.3320     7.8460 ha         1 A2O       0.104000
     35 H12          1.7870    -0.6350    -3.3260 hc         1 A2O       0.042200
     36 H13          1.4110    -1.8550    -2.0980 hc         1 A2O       0.042200
     37 H14         -4.6480     0.3140    -0.2740 hc         1 A2O       0.003033
     38 H15         -4.6920     0.0390    -2.0210 hc         1 A2O       0.003033
     39 H16         -5.0920    -1.2760    -0.9080 hc         1 A2O       0.003033
     40 H17          1.3300    -2.8320     3.2810 h1         1 A2O       0.071700
     41 H18          2.9740    -2.7940     3.9340 h1         1 A2O       0.071700
     42 H19          3.4850    -3.7770     6.0900 ha         1 A2O       0.112000
     43 H20         -0.4880    -3.8550     4.5250 ha         1 A2O       0.112000
     44 H21          2.8520    -5.4570     7.7820 ha         1 A2O       0.105500
     45 H22          2.8450     0.6340     3.7490 hn         1 A2O       0.350800
     46 C8          -2.1060     0.3990    -1.2420 c3         1 A2O       0.024000
     47 H10         -1.1200    -5.5340     6.2160 ha         1 A2O       0.105500
@<TRIPOS>BOND
     1     1     2 ar  
     2     1     3 ar  
     3     1    20 1   
     4     2     7 ar  
     5     2     8 1   
     6     3     4 ar  
     7     3    25 1   
     8     4     5 ar  
     9     4    26 1   
    10     5     7 ar  
    11     5    19 1   
    12     6    13 1   
    13     6    27 1   
    14     6    28 1   
    15     6    46 1   
    16     7    29 1   
    17     8    11 1   
    18     8    32 1   
    19     8    33 1   
    20     9    10 ar  
    21     9    17 ar  
    22     9    47 1   
    23    10    18 ar  
    24    10    34 1   
    25    11    12 1   
    26    11    35 1   
    27    11    36 1   
    28    12    20 1   
    29    12    22 2   
    30    13    37 1   
    31    13    38 1   
    32    13    39 1   
    33    14    15 1   
    34    14    24 1   
    35    14    40 1   
    36    14    41 1   
    37    15    16 ar  
    38    15    17 ar  
    39    16    18 ar  
    40    16    42 1   
    41    17    43 1   
    42    18    44 1   
    43    19    24 1   
    44    19    45 1   
    45    20    46 1   
    46    21    24 2   
    47    23    24 2   
    48    30    46 1   
    49    31    46 1   
@<TRIPOS>SUBSTRUCTURE
     1 A2O         1 TEMP              0 ****  ****    0 ROOT
