@<TRIPOS>MOLECULE
molecule
   38    40     1     0     0
SMALL
bcc


@<TRIPOS>ATOM
      1 P1           0.0000     0.0000     0.0000 p5         1 A2P       1.166900
      2 O1P          1.4800     0.0000     0.0000 o          1 A2P      -0.918500
      3 O2P         -0.5360     0.0000     1.5180 o          1 A2P      -0.918500
      4 O3P         -0.5370    -1.3140    -0.7590 o          1 A2P      -0.918500
      5 P2           1.5030     4.9640    -6.6620 p5         1 A2P       1.184900
      6 O4P          2.4150     3.8870    -7.1060 o          1 A2P      -0.929167
      7 O5P          0.7750     5.6110    -7.9440 o          1 A2P      -0.929167
      8 O6P          2.3470     6.0990    -5.8950 o          1 A2P      -0.929167
      9 O5'          0.3920     4.3510    -5.6710 os         1 A2P      -0.543200
     10 C5'          1.0930     3.7910    -4.5600 c3         1 A2P       0.163400
     11 C4'          0.0900     3.1880    -3.5750 c3         1 A2P       0.118100
     12 O4'         -0.6590     2.1270    -4.2060 os         1 A2P      -0.415600
     13 C3'          0.8270     2.5070    -2.4020 c3         1 A2P       0.105100
     14 O3'          0.8740     3.3750    -1.2680 oh         1 A2P      -0.579800
     15 C2'         -0.0300     1.2580    -2.0930 c3         1 A2P       0.135100
     16 O2'         -0.5360     1.3150    -0.7580 os         1 A2P      -0.504200
     17 C1'         -1.1810     1.3320    -3.1200 c3         1 A2P       0.212800
     18 N9          -1.5300    -0.0100    -3.5920 na         1 A2P      -0.199000
     19 C8          -0.9710    -0.6640    -4.6480 cc         1 A2P       0.470700
     20 N7          -1.5190    -1.8370    -4.7860 nd         1 A2P      -0.668100
     21 C5          -2.4590    -2.0100    -3.8270 ca         1 A2P      -0.172200
     22 C6          -3.3530    -3.0420    -3.4950 ca         1 A2P       0.737200
     23 N6          -3.3810    -4.2170    -4.2240 nv         1 A2P      -1.039500
     24 N1          -4.1670    -2.8660    -2.4600 nb         1 A2P      -0.860000
     25 C2          -4.1480    -1.7470    -1.7580 ca         1 A2P       0.690900
     26 N3          -3.3330    -0.7530    -2.0350 nb         1 A2P      -0.686000
     27 C4          -2.4820    -0.8380    -3.0530 ca         1 A2P       0.530800
     28 H5'1         1.7650     3.0170    -4.9100 h1         1 A2P       0.045200
     29 H5'2         1.6630     4.5670    -4.0640 h1         1 A2P       0.045200
     30 H4'         -0.5830     3.9500    -3.2020 h1         1 A2P       0.049700
     31 H3'          1.8250     2.2140    -2.7040 h1         1 A2P       0.048700
     32 HO3'         1.7690     3.4820    -0.9910 ho         1 A2P       0.384000
     33 H2'          0.5510     0.3560    -2.2450 h1         1 A2P       0.093700
     34 H1'         -2.0430     1.8190    -2.6810 h2         1 A2P       0.082700
     35 H8          -0.1870    -0.2670    -5.2810 h5         1 A2P       0.091800
     36 HN61        -4.2450    -4.7030    -4.3580 hn         1 A2P       0.414800
     37 HN62        -2.5300    -4.6010    -4.5860 hn         1 A2P       0.414800
     38 H2          -4.8290    -1.6450    -0.9220 h5         1 A2P       0.028100
@<TRIPOS>BOND
     1     1     2 1
     2     1     3 1
     3     1     4 1
     4     1    16 1
     5     5     6 1
     6     5     7 1
     7     5     8 1
     8     5     9 1
     9     9    10 1
    10    10    11 1
    11    10    28 1
    12    10    29 1
    13    11    12 1
    14    11    13 1
    15    11    30 1
    16    12    17 1
    17    13    14 1
    18    13    15 1
    19    13    31 1
    20    14    32 1
    21    15    16 1
    22    15    17 1
    23    15    33 1
    24    17    18 1
    25    17    34 1
    26    18    19 1
    27    18    27 1
    28    19    20 2
    29    19    35 1
    30    20    21 1
    31    21    22 ar
    32    21    27 ar
    33    22    23 1
    34    22    24 ar
    35    23    36 1
    36    23    37 1
    37    24    25 ar
    38    25    26 ar
    39    25    38 1
    40    26    27 ar
@<TRIPOS>SUBSTRUCTURE
     1 A2P         1 TEMP              0 ****  ****    0 ROOT
