@<TRIPOS>MOLECULE
A2Q
   15    15     1     0     0
SMALL
bcc


@<TRIPOS>ATOM
      1 C1         -0.0270    0.0120   -0.0350 c         1 A2Q      0.565300
      2 C2          1.4750   -0.0490    0.0300 c3        1 A2Q     -0.181400
      3 C3          1.9920    0.0520    1.4480 c3        1 A2Q     -0.072400
      4 C4          1.4500    1.2740    2.1630 c3        1 A2Q     -0.066200
      5 C5         -0.0120    1.4320    1.9760 c2        1 A2Q     -0.097200
      6 C6         -0.6870    0.8590    0.9730 ce        1 A2Q     -0.254200
      7 O1         -0.6650   -0.5950   -0.9030 o         1 A2Q     -0.532100
      8 H21C        1.8740    0.8020   -0.5860 hc        1 A2Q      0.071700
      9 H22C        1.8330   -1.0020   -0.4410 hc        1 A2Q      0.071700
     10 H6         -1.7750    0.9870    0.8500 ha        1 A2Q      0.149000
     11 H31C        3.1120    0.0930    1.4330 hc        1 A2Q      0.049700
     12 H32C        1.6990   -0.8710    2.0160 hc        1 A2Q      0.049700
     13 H41C        1.6880    1.2020    3.2580 hc        1 A2Q      0.058200
     14 H42C        1.9600    2.1990    1.7750 hc        1 A2Q      0.058200
     15 H5         -0.5250    2.0700    2.7150 ha        1 A2Q      0.129000
@<TRIPOS>BOND
     1    1    2 1   
     2    1    6 1   
     3    1    7 2   
     4    2    3 1   
     5    2    8 1   
     6    2    9 1   
     7    3    4 1   
     8    3   11 1   
     9    3   12 1   
    10    4    5 1   
    11    4   13 1   
    12    4   14 1   
    13    5    6 2   
    14    5   15 1   
    15    6   10 1   
@<TRIPOS>SUBSTRUCTURE
     1 A2Q         1 TEMP              0 ****  ****    0 ROOT
