@<TRIPOS>MOLECULE
molecule
   15    15     1     0     0
SMALL
bcc


@<TRIPOS>ATOM
      1 C1           0.0000     0.0000     0.0000 c          1 A2Q       0.566300
      2 C2           1.5140     0.0000     0.0000 c3         1 A2Q      -0.179400
      3 C3           1.9720     0.0000     1.4660 c3         1 A2Q      -0.076400
      4 C4           1.4720     1.2750     2.1420 c3         1 A2Q      -0.060200
      5 C5          -0.0060     1.4480     1.9500 c2         1 A2Q      -0.106200
      6 C6          -0.6830     0.8680     0.9660 ce         1 A2Q      -0.255200
      7 O1          -0.6280    -0.6910    -0.7750 o          1 A2Q      -0.523100
      8 H21C         1.8820     0.8880    -0.4990 hc         1 A2Q       0.070700
      9 H22C         1.8810    -0.8890    -0.4990 hc         1 A2Q       0.070700
     10 H6          -1.7490     1.0370     0.8760 ha         1 A2Q       0.149000
     11 H31C         3.0540    -0.0310     1.5070 hc         1 A2Q       0.051200
     12 H32C         1.5590    -0.8640     1.9730 hc         1 A2Q       0.051200
     13 H41C         1.6860     1.2200     3.2030 hc         1 A2Q       0.057200
     14 H42C         1.9860     2.1280     1.7150 hc         1 A2Q       0.057200
     15 H5          -0.5470     2.0760     2.6470 ha         1 A2Q       0.127000
@<TRIPOS>BOND
     1     1     2 1
     2     1     6 1
     3     1     7 2
     4     2     3 1
     5     3     4 1
     6     4     5 1
     7     5     6 2
     8     2     8 1
     9     2     9 1
    10     6    10 1
    11     3    11 1
    12     3    12 1
    13     4    13 1
    14     4    14 1
    15     5    15 1
@<TRIPOS>SUBSTRUCTURE
     1 A2Q         1 TEMP              0 ****  ****    0 ROOT
