@<TRIPOS>MOLECULE
molecule
   88    91     1     0     0
SMALL
bcc


@<TRIPOS>ATOM
      1 O22          0.0000     0.0000     0.0000 o          1 A2T      -0.570100
      2 C20          1.2300     0.0000     0.0000 c          1 A2T       0.684700
      3 C23          1.8810     0.0000     1.3200 ca         1 A2T      -0.140600
      4 C27          2.1970     1.2090     1.9230 ca         1 A2T      -0.100500
      5 C31          2.8120     1.2090     3.1750 ca         1 A2T      -0.127500
      6 C33          3.1050     0.0010     3.8080 ca         1 A2T      -0.066300
      7 C35          3.7630     0.0010     5.1450 c3         1 A2T      -0.039100
      8 C37          5.2970    -0.0190     5.0790 c3         1 A2T      -0.075400
      9 C39          5.9590    -0.0930     6.4580 c3         1 A2T      -0.078400
     10 C42          7.4840    -0.1350     6.3370 c3         1 A2T      -0.082400
     11 C43          8.1460    -0.2480     7.7010 c3         1 A2T      -0.090100
     12 C30          2.7820    -1.2080     3.1900 ca         1 A2T      -0.127500
     13 C26          2.1660    -1.2080     1.9380 ca         1 A2T      -0.100500
     14 N19          2.0360    -0.0160    -1.1490 n          1 A2T      -0.490800
     15 C21          1.4210    -0.0350    -2.4540 c3         1 A2T       0.113700
     16 C25          0.5690     1.2150    -2.6790 c3         1 A2T      -0.098900
     17 C29         -0.1670     1.1500    -4.0180 c3         1 A2T       0.168800
     18 N32         -0.9880    -0.0650    -4.1130 n3         1 A2T      -0.716600
     19 C34         -1.7240    -0.0870    -5.3770 c3         1 A2T       0.163800
     20 C36         -2.6540     1.1150    -5.5330 c3         1 A2T      -0.078400
     21 C38         -3.4810     1.1370    -6.8340 c3         1 A2T      -0.072700
     22 C41         -4.3330    -0.1320    -6.9240 c3         1 A2T      -0.089100
     23 C40         -2.6050     1.2590    -8.0820 c3         1 A2T      -0.089100
     24 C28         -0.1640    -1.2740    -3.9790 c3         1 A2T       0.168800
     25 C24          0.5720    -1.2930    -2.6390 c3         1 A2T      -0.098900
     26 C18          3.5020    -0.0150    -1.1280 c3         1 A2T       0.158300
     27 C17          4.0730     1.1800    -1.8340 ca         1 A2T      -0.113300
     28 C15          4.3190     2.3470    -1.1200 ca         1 A2T      -0.110500
     29 C13          4.8500     3.4580    -1.7750 ca         1 A2T      -0.133500
     30 C16          4.3510     1.1080    -3.1940 ca         1 A2T      -0.110500
     31 C14          4.8810     2.2190    -3.8500 ca         1 A2T      -0.133500
     32 C12          5.1310     3.3950    -3.1410 ca         1 A2T       0.158600
     33 N44          5.6670     4.5170    -3.8030 nh         1 A2T      -0.649400
     34 C45          7.1140     4.4600    -4.0690 c3         1 A2T       0.226100
     35 C4           4.9310     5.5590    -4.4370 ca         1 A2T       0.228600
     36 C2           3.6940     5.2820    -4.9920 ca         1 A2T      -0.292300
     37 C8           5.4610     6.8360    -4.4910 ca         1 A2T      -0.292300
     38 C9           4.7060     7.8130    -5.1180 ca         1 A2T       0.417700
     39 N6           3.4940     7.5930    -5.6740 nb         1 A2T      -0.680000
     40 C3           3.0190     6.3300    -5.5960 ca         1 A2T       0.417700
     41 H27          1.9670     2.1440     1.4270 ha         1 A2T       0.141000
     42 H31          3.0630     2.1470     3.6550 ha         1 A2T       0.136000
     43 H351         3.4300    -0.8710     5.6950 hc         1 A2T       0.048700
     44 H352         3.4530     0.8890     5.6830 hc         1 A2T       0.048700
     45 H371         5.6340     0.8810     4.5790 hc         1 A2T       0.041200
     46 H372         5.6080    -0.8780     4.4970 hc         1 A2T       0.041200
     47 H391         5.6730     0.7770     7.0360 hc         1 A2T       0.040700
     48 H392         5.6190    -0.9860     6.9680 hc         1 A2T       0.040700
     49 H421         7.8260     0.7710     5.8520 hc         1 A2T       0.038700
     50 H422         7.7680    -0.9890     5.7340 hc         1 A2T       0.038700
     51 H431         9.2200    -0.3190     7.5760 hc         1 A2T       0.034033
     52 H432         7.7820    -1.1350     8.2070 hc         1 A2T       0.034033
     53 H433         7.9080     0.6280     8.2920 hc         1 A2T       0.034033
     54 H30          3.0090    -2.1460     3.6820 ha         1 A2T       0.136000
     55 H26          1.9130    -2.1430     1.4540 ha         1 A2T       0.141000
     56 H21          2.2050    -0.0460    -3.2020 h1         1 A2T       0.048700
     57 H251         1.2110     2.0870    -2.6710 hc         1 A2T       0.063200
     58 H252        -0.1580     1.2960    -1.8800 hc         1 A2T       0.063200
     59 H291        -0.8080     2.0180    -4.1120 h1         1 A2T       0.031200
     60 H292         0.5600     1.1500    -4.8220 h1         1 A2T       0.031200
     61 H341        -1.0150    -0.0890    -6.1960 h1         1 A2T       0.030700
     62 H342        -2.3150    -0.9940    -5.4230 h1         1 A2T       0.030700
     63 H361        -3.3380     1.1270    -4.6940 hc         1 A2T       0.046200
     64 H362        -2.0530     2.0160    -5.4970 hc         1 A2T       0.046200
     65 H38         -4.1450     1.9920    -6.8000 hc         1 A2T       0.048700
     66 H411        -4.8400    -0.2940    -5.9800 hc         1 A2T       0.033867
     67 H412        -3.6960    -0.9800    -7.1420 hc         1 A2T       0.033867
     68 H413        -5.0670    -0.0180    -7.7130 hc         1 A2T       0.033867
     69 H401        -1.6210     1.6120    -7.7990 hc         1 A2T       0.033867
     70 H402        -2.5180     0.2890    -8.5580 hc         1 A2T       0.033867
     71 H403        -3.0560     1.9610    -8.7720 hc         1 A2T       0.033867
     72 H281         0.5630    -1.2990    -4.7820 h1         1 A2T       0.031200
     73 H282        -0.8030    -2.1470    -4.0440 h1         1 A2T       0.031200
     74 H241        -0.1540    -1.3490    -1.8370 hc         1 A2T       0.063200
     75 H242         1.2170    -2.1630    -2.6020 hc         1 A2T       0.063200
     76 H181         3.8620    -0.9140    -1.6130 h1         1 A2T       0.057200
     77 H182         3.8390    -0.0100    -0.0990 h1         1 A2T       0.057200
     78 H15          4.1000     2.3940    -0.0610 ha         1 A2T       0.138000
     79 H13          5.0430     4.3710    -1.2240 ha         1 A2T       0.142500
     80 H16          4.1560     0.1940    -3.7420 ha         1 A2T       0.138000
     81 H14          5.1000     2.1680    -4.9100 ha         1 A2T       0.142500
     82 H451         7.2810     4.3280    -5.1320 h1         1 A2T       0.036700
     83 H452         7.5780     5.3830    -3.7430 h1         1 A2T       0.036700
     84 H453         7.5480     3.6270    -3.5300 h1         1 A2T       0.036700
     85 H2           3.2710     4.2860    -4.9560 ha         1 A2T       0.149000
     86 H8           6.4290     7.0620    -4.0600 ha         1 A2T       0.149000
     87 H9           5.1120     8.8170    -5.1650 h4         1 A2T       0.017100
     88 H3           2.0490     6.1240    -6.0340 h4         1 A2T       0.017100
@<TRIPOS>BOND
     1     1     2 2
     2     2     3 1
     3     2    14 1
     4     3    13 ar
     5     3     4 ar
     6     4     5 ar
     7     4    41 1
     8     5     6 ar
     9     5    42 1
    10     6    12 ar
    11     6     7 1
    12     7     8 1
    13     7    43 1
    14     7    44 1
    15     8     9 1
    16     8    45 1
    17     8    46 1
    18     9    10 1
    19     9    47 1
    20     9    48 1
    21    10    11 1
    22    10    49 1
    23    10    50 1
    24    11    51 1
    25    11    52 1
    26    11    53 1
    27    12    13 ar
    28    12    54 1
    29    13    55 1
    30    14    15 1
    31    14    26 1
    32    15    16 1
    33    15    25 1
    34    15    56 1
    35    16    17 1
    36    16    57 1
    37    16    58 1
    38    17    18 1
    39    17    59 1
    40    17    60 1
    41    18    19 1
    42    18    24 1
    43    19    20 1
    44    19    61 1
    45    19    62 1
    46    20    21 1
    47    20    63 1
    48    20    64 1
    49    21    23 1
    50    21    22 1
    51    21    65 1
    52    22    66 1
    53    22    67 1
    54    22    68 1
    55    23    69 1
    56    23    70 1
    57    23    71 1
    58    24    25 1
    59    24    72 1
    60    24    73 1
    61    25    74 1
    62    25    75 1
    63    26    27 1
    64    26    76 1
    65    26    77 1
    66    27    30 ar
    67    27    28 ar
    68    28    29 ar
    69    28    78 1
    70    29    32 ar
    71    29    79 1
    72    30    31 ar
    73    30    80 1
    74    31    32 ar
    75    31    81 1
    76    32    33 1
    77    33    34 1
    78    33    35 1
    79    34    82 1
    80    34    83 1
    81    34    84 1
    82    35    36 ar
    83    35    37 ar
    84    36    40 ar
    85    36    85 1
    86    37    38 ar
    87    37    86 1
    88    38    39 ar
    89    38    87 1
    90    39    40 ar
    91    40    88 1
@<TRIPOS>SUBSTRUCTURE
     1 A2T         1 TEMP              0 ****  ****    0 ROOT
