@<TRIPOS>MOLECULE
molecule
   50    52     1     0     0
SMALL
bcc


@<TRIPOS>ATOM
      1 C1           0.0000     0.0000     0.0000 ca         1 A2V      -0.046300
      2 C2           1.3830     0.0000     0.0000 ca         1 A2V      -0.162500
      3 C3          -0.6920     0.0010     1.1960 ca         1 A2V      -0.162500
      4 C4          -0.7520     0.0060    -1.3060 c3         1 A2V      -0.169300
      5 C5           2.0750     0.0000     1.1990 ca         1 A2V       0.161400
      6 C6           1.3830     0.0000     2.3980 ca         1 A2V      -0.150300
      7 C7          -0.0020     0.0020     2.3960 ca         1 A2V       0.161400
      8 C8          -7.9360     1.0850    -1.4340 c3         1 A2V      -0.104400
      9 C9          -7.9190     0.3890    -2.7960 c3         1 A2V       0.099000
     10 C10         -3.0680    -0.9360    -3.3780 ca         1 A2V       0.080600
     11 C11         -4.2020    -1.6160    -2.9510 ca         1 A2V      -0.077000
     12 C12         -3.1790     0.3550    -3.8770 ca         1 A2V      -0.103000
     13 C13         -4.4170     0.9640    -3.9480 ca         1 A2V      -0.129300
     14 C14         -5.5500     0.2840    -3.5210 ca         1 A2V       0.087600
     15 C15         -4.5410     2.3640    -4.4880 c3         1 A2V      -0.030100
     16 C16         -5.4390    -1.0060    -3.0230 ca         1 A2V      -0.167000
     17 C17          2.1350     0.0010     3.7030 c3         1 A2V      -0.046800
     18 C18         -5.8660     2.5080    -5.2360 c3         1 A2V      -0.153400
     19 C19         -6.9910     1.9720    -4.3930 c          1 A2V       0.702500
     20 C20         -9.1000     0.5460    -0.6010 c3         1 A2V      -0.091100
     21 F1           3.4260    -0.0010     1.1990 f          1 A2V      -0.128900
     22 F2          -0.6790     0.0030     3.5660 f          1 A2V      -0.128900
     23 N1          -6.8040     0.9040    -3.5940 n          1 A2V      -0.375000
     24 N2          -1.8140    -1.5510    -3.3010 nu         1 A2V      -0.779500
     25 O1           0.1700    -2.3530    -2.1440 o          1 A2V      -0.618300
     26 O2          -8.0790     2.5060    -4.4340 o          1 A2V      -0.624500
     27 O3          -2.0250    -2.3200    -1.0010 o          1 A2V      -0.618300
     28 S           -1.0550    -1.7020    -1.8370 s6         1 A2V       1.328900
     29 H1           1.9240    -0.0000    -0.9380 ha         1 A2V       0.157500
     30 H2          -1.7750     0.0010     1.1950 ha         1 A2V       0.157500
     31 H3          -1.6980     0.5170    -1.1750 h1         1 A2V       0.108200
     32 H4          -0.1650     0.5200    -2.0580 h1         1 A2V       0.108200
     33 H5          -8.0560     2.1520    -1.5760 hc         1 A2V       0.052700
     34 H6          -7.0030     0.8920    -0.9180 hc         1 A2V       0.052700
     35 H7          -8.8520     0.5820    -3.3120 h1         1 A2V       0.066200
     36 H8          -7.7980    -0.6790    -2.6540 h1         1 A2V       0.066200
     37 H9          -4.1150    -2.6230    -2.5620 ha         1 A2V       0.162000
     38 H10         -2.2950     0.8850    -4.2100 ha         1 A2V       0.137000
     39 H11         -3.7280     2.5440    -5.1810 hc         1 A2V       0.061200
     40 H12         -4.5310     3.0600    -3.6580 hc         1 A2V       0.061200
     41 H13         -6.3240    -1.5360    -2.6890 ha         1 A2V       0.148000
     42 H14          3.1710    -0.2610     3.5230 hc         1 A2V       0.056033
     43 H15          1.6920    -0.7230     4.3760 hc         1 A2V       0.056033
     44 H16          2.0840     0.9870     4.1480 hc         1 A2V       0.056033
     45 H17         -6.0460     3.5550    -5.4480 hc         1 A2V       0.080200
     46 H18         -5.8160     1.9510    -6.1640 hc         1 A2V       0.080200
     47 H19         -9.1580     1.0910     0.3340 hc         1 A2V       0.037033
     48 H20         -8.9420    -0.5060    -0.3960 hc         1 A2V       0.037033
     49 H21        -10.0260     0.6720    -1.1500 hc         1 A2V       0.037033
     50 H22         -1.3840    -1.9150    -4.1280 hn         1 A2V       0.465800
@<TRIPOS>BOND
     1    27    28 2
     2     4     1 1
     3     4    28 1
     4     3     1 ar
     5     3     7 ar
     6     1     2 ar
     7    28    25 2
     8    28    24 1
     9    22     7 1
    10     7     6 ar
    11     2     5 ar
    12    24    10 1
    13     6     5 ar
    14     6    17 1
    15     5    21 1
    16    10    12 ar
    17    10    11 ar
    18    12    13 ar
    19    11    16 ar
    20    13    15 1
    21    13    14 ar
    22    15    18 1
    23    16    14 ar
    24    18    19 1
    25    14    23 1
    26    19    23 1
    27    19    26 2
    28    23     9 1
    29     8     9 1
    30     8    20 1
    31     2    29 1
    32     3    30 1
    33     4    31 1
    34     4    32 1
    35     8    33 1
    36     8    34 1
    37     9    35 1
    38     9    36 1
    39    11    37 1
    40    12    38 1
    41    15    39 1
    42    15    40 1
    43    16    41 1
    44    17    42 1
    45    17    43 1
    46    17    44 1
    47    18    45 1
    48    18    46 1
    49    20    47 1
    50    20    48 1
    51    20    49 1
    52    24    50 1
@<TRIPOS>SUBSTRUCTURE
     1 A2V         1 TEMP              0 ****  ****    0 ROOT
