@<TRIPOS>MOLECULE
molecule
   39    42     1     0     0
SMALL
bcc


@<TRIPOS>ATOM
      1 C10          0.0000     0.0000     0.0000 ca         1 A2W      -0.141000
      2 C13          1.3840    -0.0100     2.3980 ca         1 A2W      -0.106500
      3 C15          3.4430    -0.0010    -1.3520 cc         1 A2W      -0.080300
      4 C20          6.2480    -3.4220    -3.4560 cd         1 A2W       0.311200
      5 C22          5.3500    -1.9980    -4.8050 cc         1 A2W       0.399400
      6 C24          2.9890     0.8010    -7.0130 ca         1 A2W      -0.169500
      7 C02          2.0480    -0.0260    -7.6040 ca         1 A2W       0.142900
      8 C03          1.2530    -0.8480    -6.8210 ca         1 A2W      -0.169500
      9 C04          1.3970    -0.8460    -5.4480 ca         1 A2W      -0.083500
     10 C05          2.3430    -0.0160    -4.8500 ca         1 A2W      -0.134500
     11 C06          2.5000    -0.0100    -3.3750 cd         1 A2W       0.416800
     12 C09          1.3890     0.0000     0.0000 ca         1 A2W       0.034800
     13 C11         -0.6890     0.0000     1.1960 ca         1 A2W      -0.106500
     14 C12          0.0010    -0.0050     2.3940 ca         1 A2W      -0.137000
     15 C14          2.0790     0.0000     1.2050 ca         1 A2W      -0.141000
     16 C16          3.7230    -0.0060    -2.6730 cd         1 A2W      -0.323600
     17 C19          6.0560    -2.2890    -2.7540 cc         1 A2W      -0.281600
     18 C23          3.1400     0.8090    -5.6420 ca         1 A2W      -0.083500
     19 N07          1.5230    -0.0010    -2.4930 nc         1 A2W      -0.489800
     20 N08          2.0910    -0.0010    -1.2120 na         1 A2W       0.157300
     21 N18          5.4860    -1.3850    -3.6100 na         1 A2W      -0.184900
     22 N21          5.8130    -3.2140    -4.7070 nd         1 A2W      -0.699000
     23 H1          -0.5420     0.0020    -0.9380 ha         1 A2W       0.146500
     24 H2           1.9230    -0.0130     3.3380 ha         1 A2W       0.139000
     25 H3           4.1660     0.0670    -0.5480 h4         1 A2W       0.176000
     26 H4           5.8090     0.4120    -2.5870 h1         1 A2W       0.066200
     27 H5           5.0900     0.5850    -4.1940 h1         1 A2W       0.066200
     28 H7           4.9330    -1.5520    -5.7000 h5         1 A2W       0.065100
     29 H8           3.6080     1.4420    -7.6280 ha         1 A2W       0.150500
     30 H9           0.5180    -1.4930    -7.2860 ha         1 A2W       0.150500
     31 H10          0.7750    -1.4890    -4.8370 ha         1 A2W       0.146500
     32 H11         -1.7730     0.0020     1.1960 ha         1 A2W       0.139000
     33 H12         -0.5420    -0.0090     3.3310 ha         1 A2W       0.136000
     34 H13          3.1620    -0.0020     1.2080 ha         1 A2W       0.146500
     35 H14          6.3020    -2.1250    -1.7110 h4         1 A2W       0.167000
     36 H15          3.8770     1.4560    -5.1810 ha         1 A2W       0.146500
     37 C17          5.0980    -0.0090    -3.2890 c3         1 A2W       0.125600
     38 F01          1.9030    -0.0310    -8.9470 f          1 A2W      -0.136900
     39 H6           6.6830    -4.3390    -3.0770 h4         1 A2W       0.038100
@<TRIPOS>BOND
     1     8     9 ar
     2     8     7 ar
     3    38     7 1
     4     9    10 ar
     5     7     6 ar
     6    10    11 1
     7    10    18 ar
     8     6    18 ar
     9    37    16 1
    10    37    21 1
    11     5    21 1
    12     5    22 2
    13    11    16 1
    14    11    19 2
    15    16     3 2
    16    21    17 1
    17    19    20 1
    18     3    20 1
    19    22     4 1
    20    20    12 1
    21    15    12 ar
    22    15     2 ar
    23    12     1 ar
    24    17     4 2
    25     2    14 ar
    26     1    13 ar
    27    14    13 ar
    28     1    23 1
    29     2    24 1
    30     3    25 1
    31    37    26 1
    32    37    27 1
    33     4    39 1
    34     5    28 1
    35     6    29 1
    36     8    30 1
    37     9    31 1
    38    13    32 1
    39    14    33 1
    40    15    34 1
    41    17    35 1
    42    18    36 1
@<TRIPOS>SUBSTRUCTURE
     1 A2W         1 TEMP              0 ****  ****    0 ROOT
