@<TRIPOS>MOLECULE
molecule
   45    47     1     0     0
SMALL
bcc


@<TRIPOS>ATOM
      1 C01          0.0000     0.0000     0.0000 ca         1 A2X      -0.115000
      2 C02          1.3830     0.0000     0.0000 ca         1 A2X      -0.136000
      3 C03          2.0780     0.0000     1.1960 ca         1 A2X      -0.115000
      4 C04          1.3920    -0.0000     2.3950 ca         1 A2X      -0.126000
      5 C05          0.0030    -0.0020     2.3990 ca         1 A2X       0.025900
      6 C06         -0.6920     0.0050     1.1950 ca         1 A2X      -0.126000
      7 S07         -0.8760    -0.0040     3.9250 ss         1 A2X      -0.208800
      8 C08          0.4090    -0.1550     5.1220 ca         1 A2X      -0.033100
      9 C09          0.9310     0.9810     5.7280 ca         1 A2X      -0.062500
     10 C10          1.9380     0.8630     6.6650 ca         1 A2X      -0.159000
     11 C11          2.4270    -0.3930     7.0030 ca         1 A2X       0.078600
     12 C12          1.9060    -1.5280     6.3960 ca         1 A2X      -0.159000
     13 C13          0.8950    -1.4100     5.4640 ca         1 A2X      -0.062500
     14 N14          3.4500    -0.5130     7.9530 ns         1 A2X      -0.476100
     15 C15          4.3870    -1.4710     7.8170 c          1 A2X       0.673100
     16 O16          4.3010    -2.2810     6.9180 o          1 A2X      -0.578100
     17 C17          5.5440    -1.5350     8.7800 c3         1 A2X      -0.110300
     18 S18          6.6230    -2.9210     8.3360 ss         1 A2X      -0.152400
     19 C19          7.8530    -2.7640     9.5890 ca         1 A2X       0.775300
     20 N20          8.8620    -3.6230     9.6160 nb         1 A2X      -0.750500
     21 C21          9.8010    -3.5330    10.5420 ca         1 A2X       0.481100
     22 C22          9.7220    -2.5260    11.4910 ca         1 A2X      -0.393600
     23 C23          8.6530    -1.6440    11.4330 ca         1 A2X       0.481100
     24 N24          7.7500    -1.7860    10.4780 nb         1 A2X      -0.750500
     25 C25          8.5260    -0.5340    12.4440 c3         1 A2X      -0.145400
     26 C26         10.9450    -4.5140    10.5650 c3         1 A2X      -0.145400
     27 H011        -0.5410     0.0020    -0.9390 ha         1 A2X       0.131500
     28 H021         1.9230    -0.0020    -0.9390 ha         1 A2X       0.129000
     29 H031         3.1610     0.0010     1.1920 ha         1 A2X       0.131500
     30 H041         1.9370    -0.0030     3.3310 ha         1 A2X       0.139500
     31 H061        -1.7750     0.0040     1.1940 ha         1 A2X       0.139500
     32 H091         0.5480     1.9600     5.4650 ha         1 A2X       0.150000
     33 H101         2.3450     1.7480     7.1380 ha         1 A2X       0.153500
     34 H121         2.2870    -2.5070     6.6610 ha         1 A2X       0.153500
     35 H131         0.4890    -2.2960     4.9910 ha         1 A2X       0.150000
     36 H141         3.4740     0.1020     8.7420 hn         1 A2X       0.329500
     37 H171         5.1690    -1.6780     9.7860 h1         1 A2X       0.095700
     38 H172         6.1060    -0.6100     8.7320 h1         1 A2X       0.095700
     39 H221        10.4770    -2.4310    12.2620 ha         1 A2X       0.147000
     40 H252         7.5970    -0.0010    12.2810 hc         1 A2X       0.057700
     41 H253         9.3580     0.1500    12.3360 hc         1 A2X       0.057700
     42 H251         8.5300    -0.9530    13.4430 hc         1 A2X       0.057700
     43 H262        10.8340    -5.2180     9.7500 hc         1 A2X       0.057700
     44 H263        10.9420    -5.0500    11.5070 hc         1 A2X       0.057700
     45 H261        11.8810    -3.9800    10.4560 hc         1 A2X       0.057700
@<TRIPOS>BOND
     1     4     3 ar
     2     4     5 ar
     3     3     2 ar
     4     7     5 1
     5     7     8 1
     6     5     6 ar
     7     2     1 ar
     8     9     8 ar
     9     9    10 ar
    10     6     1 ar
    11     8    13 ar
    12    10    11 ar
    13    25    23 1
    14    13    12 ar
    15    11    12 ar
    16    11    14 1
    17    23    22 ar
    18    23    24 ar
    19    22    21 ar
    20    14    15 1
    21    24    19 ar
    22    21    26 1
    23    21    20 ar
    24    15    16 2
    25    15    17 1
    26    19    20 ar
    27    19    18 1
    28    17    18 1
    29     1    27 1
    30     2    28 1
    31     3    29 1
    32     4    30 1
    33     6    31 1
    34     9    32 1
    35    10    33 1
    36    12    34 1
    37    13    35 1
    38    14    36 1
    39    17    37 1
    40    17    38 1
    41    22    39 1
    42    25    40 1
    43    25    41 1
    44    25    42 1
    45    26    43 1
    46    26    44 1
    47    26    45 1
@<TRIPOS>SUBSTRUCTURE
     1 A2X         1 TEMP              0 ****  ****    0 ROOT
