@<TRIPOS>MOLECULE
A2Y
   45    46     1     0     0
SMALL
bcc


@<TRIPOS>ATOM
      1 O          -0.2310   -1.0680    1.5000 os        1 A2Y     -0.021000
      2 S          -2.6200    2.3720    1.7260 ss        1 A2Y      0.175000
      3 C1         -5.2620    0.0580    0.9090 c2        1 A2Y     -0.087000
      4 N1          1.0280   -1.3940    1.6360 n2        1 A2Y     -0.047000
      5 C2         -3.9660   -0.2540    1.0560 c2        1 A2Y     -0.158000
      6 N2          3.8470   -1.5670    2.2590 n4        1 A2Y     -0.031000
      7 C3         -2.9680    0.6900    1.3770 cu        1 A2Y      0.012000
      8 C4          0.8620    0.8620    2.0030 c2        1 A2Y     -0.220000
      9 C9          1.7460   -0.2860    1.9390 c2        1 A2Y     -0.178000
     10 C10         5.3240   -1.4980    2.5670 c3        1 A2Y     -0.117000
     11 C11        -0.3960    0.3350    1.7160 c2        1 A2Y      0.143000
     12 C12        -1.6700    0.8670    1.6110 cu        1 A2Y     -0.288000
     13 C61         5.9970   -2.8360    2.2250 c3        1 A2Y     -0.182000
     14 C62         5.5830   -1.1330    4.0420 c3        1 A2Y     -0.216000
     15 C63         6.9690    0.0380   -0.3180 c1        1 A2Y     -0.210000
     16 C71         7.4870   -2.6530    1.9500 c3        1 A2Y     -0.097000
     17 C72         5.6640    0.2350    4.4630 c1        1 A2Y     -0.086000
     18 C73         7.3110   -1.0420    0.0690 c1        1 A2Y     -0.187000
     19 C81         8.2300   -3.9180    2.3370 c3        1 A2Y     -0.220000
     20 C82         5.7310    1.4250    3.6760 c3        1 A2Y     -0.269000
     21 C83         7.7640   -2.3370    0.4810 c3        1 A2Y     -0.067000
     22 H44         1.1300    1.8900    2.2230 ha        1 A2Y      0.195000
     23 H1         -5.6520    1.0800    1.0280 ha        1 A2Y      0.140000
     24 H2         -6.0120   -0.7080    0.6570 ha        1 A2Y      0.140000
     25 H3         -3.6100   -1.2950    0.9280 ha        1 A2Y      0.163000
     26 H15         3.4250    0.3410    3.1200 hx        1 A2Y      0.156500
     27 H25         3.7160   -2.0630    1.3680 hn        1 A2Y      0.252500
     28 H161        5.8550   -3.5440    3.0860 hc        1 A2Y      0.106500
     29 H261        5.5270   -3.3120    1.3220 hc        1 A2Y      0.106500
     30 H362        6.6020   -1.5570    4.3270 hc        1 A2Y      0.173000
     31 H462        4.8530   -1.6680    4.7190 hc        1 A2Y      0.173000
     32 H563        6.6940    0.9960   -0.6840 ha        1 A2Y      0.234000
     33 H663        3.6970    0.3360    1.3030 hx        1 A2Y      0.156500
     34 H171        7.8810   -1.8040    2.5770 hc        1 A2Y      0.099000
     35 H272        8.0880   -4.1390    3.4220 hc        1 A2Y      0.093000
     36 H373        5.5690    1.3290    2.5700 hc        1 A2Y      0.123667
     37 H181        9.3240   -3.7940    2.1450 hc        1 A2Y      0.093000
     38 H281        7.8630   -4.7890    1.7430 hc        1 A2Y      0.093000
     39 H382        6.7550    1.8710    3.8520 hc        1 A2Y      0.123667
     40 H482        5.0010    2.1760    4.0910 hc        1 A2Y      0.123667
     41 H583        8.8790   -2.3950    0.3100 hc        1 A2Y      0.122000
     42 H683        7.2930   -3.1280   -0.1700 hc        1 A2Y      0.122000
     43 H1N2        5.7530   -0.6920    1.8950 hx        1 A2Y      0.159000
     44 H2N2        3.3750   -2.1110    2.9920 hn        1 A2Y      0.252500
     45 C5          3.2130   -0.2200    2.1600 c3        1 A2Y     -0.047000
@<TRIPOS>BOND
     1    1    4 1   
     2    1   11 1   
     3    2    7 1   
     4    2   12 1   
     5    3    5 1   
     6    3   23 1   
     7    3   24 1   
     8    4    9 1   
     9    5    7 1   
    10    5   25 1   
    11    6   10 1   
    12    6   27 1   
    13    6   44 1   
    14    6   45 1   
    15    7   12 1   
    16    8    9 1   
    17    8   11 1   
    18    8   22 1   
    19    9   45 1   
    20   10   13 1   
    21   10   14 1   
    22   10   43 1   
    23   11   12 1   
    24   13   16 1   
    25   13   28 1   
    26   13   29 1   
    27   14   17 1   
    28   14   30 1   
    29   14   31 1   
    30   15   18 1   
    31   15   32 1   
    32   16   19 1   
    33   16   21 1   
    34   16   34 1   
    35   17   20 1   
    36   18   21 1   
    37   19   35 1   
    38   19   37 1   
    39   19   38 1   
    40   20   36 1   
    41   20   39 1   
    42   20   40 1   
    43   21   41 1   
    44   21   42 1   
    45   26   45 1   
    46   33   45 1   
@<TRIPOS>SUBSTRUCTURE
     1 A2Y         1 TEMP              0 ****  ****    0 ROOT
