@<TRIPOS>MOLECULE
A2Z
   27    29     1     0     0
SMALL
bcc


@<TRIPOS>ATOM
      1 C1           0.0000     0.0000     0.0000 ca         1 A2Z      -0.045000
      2 N1           3.4830     0.0010     1.2140 n          1 A2Z       0.085000
      3 O1          -0.4510    -0.0070     3.6840 os         1 A2Z      -0.309900
      4 C2           1.4000     0.0000     0.0000 ca         1 A2Z      -0.124800
      5 O2           1.8120    -0.0060     3.7190 os         1 A2Z      -0.311900
      6 C3           2.1020     0.0000     1.2220 ca         1 A2Z      -0.028400
      7 C4           1.3930    -0.0030     2.4190 ca         1 A2Z      -0.002900
      8 C5           0.0050    -0.0040     2.3980 ca         1 A2Z       0.105100
      9 C6          -0.6800    -0.0020     1.1840 ca         1 A2Z      -0.120000
     10 C8           4.1670     0.0010     0.0560 c          1 A2Z       0.603700
     11 C9           3.5110     0.0000    -1.1920 cc         1 A2Z      -0.221200
     12 C10          2.1550     0.0000    -1.2520 cd         1 A2Z       0.004600
     13 C12          0.6690    -0.4200     4.4900 c3         1 A2Z       0.432200
     14 C15          1.4440    -0.0010    -2.5800 c3         1 A2Z       0.052100
     15 C16          4.2130     0.0040     2.4840 c3         1 A2Z       0.031300
     16 H1          -0.5420     0.0720    -0.9350 ha         1 A2Z       0.116000
     17 H6          -1.7630    -0.0020     1.1800 ha         1 A2Z       0.116000
     18 H9           4.0920     0.0010    -2.1060 ha         1 A2Z       0.138000
     19 H12          0.6680    -1.4960     4.6180 h2         1 A2Z       0.014200
     20 H12A         0.6530     0.0850     5.4480 h2         1 A2Z       0.014200
     21 H15          2.1730    -0.0250    -3.3810 hc         1 A2Z       0.015367
     22 H15A         0.8400     0.8940    -2.6680 hc         1 A2Z       0.015367
     23 H15B         0.8060    -0.8750    -2.6470 hc         1 A2Z       0.015367
     24 H16          3.9670    -0.8910     3.0430 h1         1 A2Z       0.033700
     25 H16A         5.2780     0.0270     2.2880 h1         1 A2Z       0.033700
     26 H16B         3.9320     0.8780     3.0590 h1         1 A2Z       0.033700
     27 O3           5.3870     0.0030     0.0870 o          1 A2Z      -0.694500
@<TRIPOS>BOND
     1     1     4 ar  
     2     1     9 ar  
     3     1    16 1   
     4     2     6 1   
     5     2    10 1   
     6     2    15 1   
     7     3     8 1   
     8     3    13 1   
     9     4     6 ar  
    10     4    12 1   
    11     5     7 1   
    12     5    13 1   
    13     6     7 ar  
    14     7     8 ar  
    15     8     9 ar  
    16     9    17 1   
    17    10    11 1   
    18    10    27 2   
    19    11    12 2   
    20    11    18 1   
    21    12    14 1   
    22    13    19 1   
    23    13    20 1   
    24    14    21 1   
    25    14    22 1   
    26    14    23 1   
    27    15    24 1   
    28    15    25 1   
    29    15    26 1   
@<TRIPOS>SUBSTRUCTURE
     1 A2Z         1 TEMP              0 ****  ****    0 ROOT
