@<TRIPOS>MOLECULE
molecule
   62    64     1     0     0
SMALL
bcc


@<TRIPOS>ATOM
      1 C1           0.0000     0.0000     0.0000 c3         1 A32       0.286900
      2 O1          -0.4740    -1.1540     0.6980 os         1 A32      -0.305900
      3 C2           1.5300     0.0000     0.0000 c3         1 A32       0.130100
      4 O2           2.0080    -1.1670    -0.6720 oh         1 A32      -0.591800
      5 C3           2.0300     0.0000     1.4490 c3         1 A32       0.123100
      6 O3           3.4510     0.1490     1.4670 oh         1 A32      -0.594800
      7 C4           1.3770     1.1720     2.1910 c3         1 A32       0.105100
      8 O4           1.8490     2.4050     1.6460 oh         1 A32      -0.582800
      9 C5          -0.1420     1.0820     2.0270 c3         1 A32       0.126100
     10 O5          -0.4830     1.1760     0.6460 os         1 A32      -0.377600
     11 C6          -0.8050     2.2280     2.7950 c3         1 A32       0.148400
     12 O6          -2.2250     2.0770     2.7420 oh         1 A32      -0.602800
     13 C1'         -1.8250    -1.1750     0.5510 ca         1 A32       0.105100
     14 C2'         -2.5810    -2.1280     1.2200 ca         1 A32      -0.086000
     15 C3'         -3.9560    -2.1500     1.0790 ca         1 A32      -0.134200
     16 C4'         -4.5850    -1.2320     0.2630 ca         1 A32      -0.085000
     17 C5'         -3.8330    -0.2740    -0.4190 ca         1 A32      -0.113600
     18 C6'         -2.4460    -0.2490    -0.2710 ca         1 A32      -0.097000
     19 N1'         -4.7550    -3.1650     1.8010 no         1 A32       0.295200
     20 O1'         -5.9670    -3.1900     1.6730 o          1 A32      -0.204000
     21 O2'         -4.2020    -3.9760     2.5220 o          1 A32      -0.204000
     22 C7'         -4.5030     0.7100    -1.2950 c          1 A32       0.675700
     23 O3'         -3.8470     1.5440    -1.8860 o          1 A32      -0.596100
     24 N2'         -5.8440     0.6840    -1.4370 ns         1 A32      -0.582900
     25 O1B        -12.6770     3.3230    -2.3540 os         1 A32      -0.404600
     26 C2B        -12.3040     3.2410    -3.7300 c3         1 A32       0.125400
     27 C3B        -10.7830     3.3350    -3.8590 c3         1 A32       0.095300
     28 N4'        -10.1610     2.1920    -3.1780 n3         1 A32      -0.669600
     29 C5B        -10.5840     2.2590    -1.7730 c3         1 A32       0.095300
     30 C6B        -12.1100     2.1910    -1.6960 c3         1 A32       0.125400
     31 C7B         -8.7110     2.4310    -3.1940 c3         1 A32       0.138800
     32 C8'         -8.0170     1.4110    -2.2870 c3         1 A32      -0.108400
     33 C9'         -6.5080     1.6600    -2.3040 c3         1 A32       0.113000
     34 H11         -0.3580    -0.0200    -1.0220 h2         1 A32       0.100700
     35 H21          1.8900     0.8880    -0.5050 h1         1 A32       0.088700
     36 HO21         2.5050    -0.9120    -1.4310 ho         1 A32       0.413000
     37 H31          1.7510    -0.9310     1.9270 h1         1 A32       0.063700
     38 HO31         3.8320    -0.5320     1.9970 ho         1 A32       0.408000
     39 H41          1.6290     1.1160     3.2430 h1         1 A32       0.044700
     40 HO41         2.4400     2.8130     2.2570 ho         1 A32       0.408000
     41 H51         -0.4890     0.1330     2.4180 h1         1 A32       0.073700
     42 H61         -0.4780     2.2080     3.8270 h1         1 A32       0.038200
     43 H62         -0.5250     3.1730     2.3450 h1         1 A32       0.038200
     44 HO1         -2.6270     2.6740     3.3500 ho         1 A32       0.406000
     45 H2'1        -2.0920    -2.8510     1.8620 ha         1 A32       0.177000
     46 H4'1        -5.6620    -1.2540     0.1520 ha         1 A32       0.158000
     47 H6'1        -1.8570     0.4920    -0.7980 ha         1 A32       0.191000
     48 HN21        -6.3820    -0.0200    -0.9720 hn         1 A32       0.317500
     49 H2'2       -12.6410     2.2960    -4.1370 h1         1 A32       0.055200
     50 H3'1       -10.5100     3.3220    -4.9080 h1         1 A32       0.048200
     51 H3'2       -10.4400     4.2560    -3.4040 h1         1 A32       0.048200
     52 H5'1       -10.1590     1.4230    -1.2300 h1         1 A32       0.048200
     53 H5'2       -10.2430     3.1900    -1.3380 h1         1 A32       0.048200
     54 H6A1       -12.4170     2.1900    -0.6570 h1         1 A32       0.055200
     55 H6'2       -12.4540     1.2850    -2.1790 h1         1 A32       0.055200
     56 H7'1        -8.5050     3.4320    -2.8350 h1         1 A32       0.043700
     57 H7'2        -8.3390     2.3260    -4.2060 h1         1 A32       0.043700
     58 H8'1        -8.3900     1.5160    -1.2750 hc         1 A32       0.056200
     59 H8'2        -8.2230     0.4100    -2.6460 hc         1 A32       0.056200
     60 H9'1        -6.3030     2.6610    -1.9440 h1         1 A32       0.056200
     61 H9'2        -6.1360     1.5560    -3.3160 h1         1 A32       0.056200
     62 H2A1       -12.7620     4.0580    -4.2750 h1         1 A32       0.055200
@<TRIPOS>BOND
     1     1     2 1
     2     1     3 1
     3     1    10 1
     4     1    34 1
     5     2    13 1
     6     3     4 1
     7     3     5 1
     8     3    35 1
     9     4    36 1
    10     5     6 1
    11     5     7 1
    12     5    37 1
    13     6    38 1
    14     7     8 1
    15     7     9 1
    16     7    39 1
    17     8    40 1
    18     9    10 1
    19     9    11 1
    20     9    41 1
    21    11    12 1
    22    11    42 1
    23    11    43 1
    24    12    44 1
    25    13    14 ar
    26    13    18 ar
    27    14    15 ar
    28    14    45 1
    29    15    16 ar
    30    15    19 1
    31    16    17 ar
    32    16    46 1
    33    17    18 ar
    34    17    22 1
    35    18    47 1
    36    19    20 1
    37    19    21 1
    38    22    23 2
    39    22    24 1
    40    24    33 1
    41    24    48 1
    42    25    26 1
    43    25    30 1
    44    26    27 1
    45    26    62 1
    46    26    49 1
    47    27    28 1
    48    27    50 1
    49    27    51 1
    50    28    29 1
    51    28    31 1
    52    29    30 1
    53    29    52 1
    54    29    53 1
    55    30    54 1
    56    30    55 1
    57    31    32 1
    58    31    56 1
    59    31    57 1
    60    32    33 1
    61    32    58 1
    62    32    59 1
    63    33    60 1
    64    33    61 1
@<TRIPOS>SUBSTRUCTURE
     1 A32         1 TEMP              0 ****  ****    0 ROOT
