@<TRIPOS>MOLECULE
A33
   19    18     1     0     0
SMALL
bcc


@<TRIPOS>ATOM
      1 C1          0.6290   -0.7840   -0.4100 c         1 A33      0.910100
      2 C2          1.0390    0.4490    0.3890 c3        1 A33     -0.167900
      3 C3          1.8150    0.3020    1.7260 c3        1 A33      0.107200
      4 C4          3.2620   -0.1410    1.3960 c3        1 A33     -0.167900
      5 C5          4.1170   -0.8130    2.4690 c         1 A33      0.910100
      6 O92         2.1860    2.7220    1.5500 o         1 A33     -0.895300
      7 C9          1.8750    1.7590    2.3220 c         1 A33      0.918600
      8 O91         1.6050    1.9820    3.5440 o         1 A33     -0.895300
      9 O12        -0.6110   -0.9690   -0.6580 o         1 A33     -0.910550
     10 O11         1.4930   -1.5550   -0.9380 o         1 A33     -0.910550
     11 NZ          1.1190   -0.6200    2.6250 n3        1 A33     -0.881800
     12 O51         5.3720   -0.5710    2.4700 o         1 A33     -0.910550
     13 O52         3.6440   -1.6630    3.2910 o         1 A33     -0.910550
     14 H21         1.6840    1.0790   -0.2790 hc        1 A33      0.033700
     15 H22         0.1050    1.0310    0.6080 hc        1 A33      0.033700
     16 H41         3.8140    0.7620    1.0290 hc        1 A33      0.033700
     17 H42         3.2000   -0.8810    0.5510 hc        1 A33      0.033700
     18 HZ1         1.4100   -1.5520    2.3860 hn        1 A33      0.334300
     19 HZ2         1.4630   -0.4390    3.5540 hn        1 A33      0.334300
@<TRIPOS>BOND
     1    1    2 1
     2    1    9 1
     3    1   10 1
     4    2    3 1
     5    2   14 1
     6    2   15 1
     7    3    4 1
     8    3    7 1
     9    3   11 1
    10    4    5 1
    11    4   16 1
    12    4   17 1
    13    5   12 1
    14    5   13 1
    15    6    7 1
    16    7    8 1
    17   11   18 1
    18   11   19 1
@<TRIPOS>SUBSTRUCTURE
     1 A33         1 TEMP              0 ****  ****    0 ROOT
