@<TRIPOS>MOLECULE
molecule
   40    40     1     0     0
SMALL
bcc


@<TRIPOS>ATOM
      1 S            0.0000     0.0000     0.0000 s6         1 A36       1.329900
      2 N1           1.6560     0.0000     0.0000 n7         1 A36      -0.917100
      3 O1          -0.3510     0.0000     1.3770 o          1 A36      -0.623800
      4 C2          -2.6430    -1.2230    -1.9320 ca         1 A36      -0.083500
      5 N2           4.5840     0.4160    -2.2780 n3         1 A36      -0.733600
      6 O2          -0.3500     1.0880    -0.8450 o          1 A36      -0.623800
      7 C3          -1.9540    -1.6960    -0.8310 ca         1 A36      -0.106300
      8 C4          -0.4530    -1.5780    -0.7730 c3         1 A36      -0.169300
      9 C6           6.5830    -0.8190    -1.5860 c3         1 A36      -0.093600
     10 C7          -2.6420    -2.2760     0.2190 ca         1 A36      -0.083500
     11 C8          -4.0200    -2.3840     0.1670 ca         1 A36      -0.164500
     12 C9          -4.7100    -1.9120    -0.9360 ca         1 A36       0.143900
     13 C10         -4.0200    -1.3310    -1.9870 ca         1 A36      -0.164500
     14 C11          2.3880     0.0240    -1.2690 c3         1 A36       0.227800
     15 C12          3.8490     0.3920    -1.0070 c3         1 A36       0.154800
     16 C13          4.1010     1.4990    -3.1460 c3         1 A36       0.155300
     17 C15          6.0310     0.5310    -2.0500 c3         1 A36       0.155300
     18 C14          4.5790     1.2560    -4.5790 c3         1 A36      -0.093600
     19 F01         -6.0550    -2.0180    -0.9880 f          1 A36      -0.137900
     20 H1           2.1560    -0.0380     0.8660 hn         1 A36       0.455800
     21 H41C        -0.0490    -1.6170    -1.7770 h1         1 A36       0.102700
     22 H42C        -0.0480    -2.3950    -0.1890 h1         1 A36       0.102700
     23 H111         1.9440     0.7590    -1.9290 h1         1 A36       0.052700
     24 H112         2.3400    -0.9540    -1.7330 h1         1 A36       0.052700
     25 H2          -2.1020    -0.7690    -2.7540 ha         1 A36       0.145000
     26 H10         -4.5580    -0.9610    -2.8510 ha         1 A36       0.150000
     27 H121         3.8980     1.3700    -0.5430 h1         1 A36       0.041700
     28 H122         4.2940    -0.3430    -0.3470 h1         1 A36       0.041700
     29 H131         3.0180     1.5230    -3.1250 h1         1 A36       0.037200
     30 H132         4.4900     2.4460    -2.7910 h1         1 A36       0.037200
     31 H151         6.2180     1.2790    -1.2890 h1         1 A36       0.037200
     32 H152         6.5200     0.8230    -2.9710 h1         1 A36       0.037200
     33 H7          -2.1030    -2.6460     1.0820 ha         1 A36       0.145000
     34 H61C         6.5770    -0.8580    -0.5030 hc         1 A36       0.039700
     35 H62C         5.9650    -1.6160    -1.9800 hc         1 A36       0.039700
     36 H63C         7.5980    -0.9370    -1.9460 hc         1 A36       0.039700
     37 H8          -4.5590    -2.8390     0.9890 ha         1 A36       0.150000
     38 H141         3.8550     1.6630    -5.2750 hc         1 A36       0.039700
     39 H142         4.6860     0.1920    -4.7490 hc         1 A36       0.039700
     40 H143         5.5350     1.7430    -4.7280 hc         1 A36       0.039700
@<TRIPOS>BOND
     1     1     2 1
     2     1     3 2
     3     1     6 2
     4     1     8 1
     5     2    14 1
     6     4     7 ar
     7     4    13 ar
     8     5    15 1
     9     5    16 1
    10     5    17 1
    11     7     8 1
    12     7    10 ar
    13     9    17 1
    14    10    11 ar
    15    11    12 ar
    16    12    13 ar
    17    12    19 1
    18    14    15 1
    19    16    18 1
    20     2    20 1
    21     8    21 1
    22     8    22 1
    23    14    23 1
    24    14    24 1
    25     4    25 1
    26    13    26 1
    27    15    27 1
    28    15    28 1
    29    16    29 1
    30    16    30 1
    31    17    31 1
    32    17    32 1
    33    10    33 1
    34     9    34 1
    35     9    35 1
    36     9    36 1
    37    11    37 1
    38    18    38 1
    39    18    39 1
    40    18    40 1
@<TRIPOS>SUBSTRUCTURE
     1 A36         1 TEMP              0 ****  ****    0 ROOT
