@<TRIPOS>MOLECULE
A3B
   14    13     1     0     0
SMALL
bcc


@<TRIPOS>ATOM
      1 CAA          0.0000     0.0000     0.0000 c2         1 A3B      -0.214000
      2 CAE          1.3100     0.0000     0.0000 c2         1 A3B      -0.089200
      3 CAG          2.0640     0.0000     1.3040 c3         1 A3B      -0.153300
      4 CAF          3.0220    -1.1630     1.3310 c          1 A3B       0.957600
      5 OAD          4.0470    -1.1630     0.5730 o          1 A3B      -0.815800
      6 OAC          2.8060    -2.1490     2.1130 o          1 A3B      -0.815800
      7 NAB          1.1150    -0.1210     2.4180 nz         1 A3B       0.076400
      8 HAA1        -0.5420     0.0000     0.9380 ha         1 A3B       0.083500
      9 HAA2        -0.5420     0.0000    -0.9380 ha         1 A3B       0.083500
     10 HAE          1.8510     0.0000    -0.9380 ha         1 A3B       0.151000
     11 HAG          2.6180     0.9260     1.4010 hx         1 A3B       0.086700
     12 HAB1         0.5650    -0.9490     2.3000 hn         1 A3B       0.216800
     13 HAB2         1.6190    -0.1760     3.2810 hn         1 A3B       0.216800
     14 HAB3         0.5140     0.6790     2.4330 hn         1 A3B       0.216800
@<TRIPOS>BOND
     1     1     2 2   
     2     1     8 1   
     3     1     9 1   
     4     2     3 1   
     5     2    10 1   
     6     3     4 1   
     7     3     7 1   
     8     3    11 1   
     9     4     5 1   
    10     4     6 1   
    11     7    12 1   
    12     7    13 1   
    13     7    14 1   
@<TRIPOS>SUBSTRUCTURE
     1 A3B         1 TEMP              0 ****  ****    0 ROOT
