@<TRIPOS>MOLECULE
A3C
   64    65     1     0     0
SMALL
bcc


@<TRIPOS>ATOM
      1 C01         0.0000    0.0000    0.0000 c3        1 A3C      0.287400
      2 O01         1.4290    0.0000    0.0000 os        1 A3C     -0.507200
      3 C02        -0.5100    0.0000    1.4420 c3        1 A3C     -0.025200
      4 P02         2.3060   -0.0010   -1.3500 p5        1 A3C      0.902800
      5 N03        -0.1190    1.2550    2.1000 nx        1 A3C     -0.161400
      6 O03         3.8670    0.1310   -0.9750 os        1 A3C     -0.469800
      7 P04         5.1780    0.5850   -1.7920 p5        1 A3C      0.801900
      8 O05         5.2450    2.1930   -1.8490 o         1 A3C     -0.665500
      9 O06         2.0600   -1.3760   -2.1490 o         1 A3C     -0.680000
     10 O07         1.9050    1.1420   -2.1990 o         1 A3C     -0.680000
     11 O08         6.4930    0.0190   -1.0550 o         1 A3C     -0.665500
     12 O09         5.1130    0.0460   -3.1690 o         1 A3C     -0.665500
     13 C11        -0.9040    2.3850    1.5860 c3        1 A3C     -0.044200
     14 C12        -0.3080    3.6960    2.1020 c3        1 A3C     -0.057400
     15 C13        -0.2460    1.1450    3.5600 c3        1 A3C      0.015100
     16 C21        -1.0650    4.8760    1.4920 c3        1 A3C      0.009500
     17 C22        -2.4370    4.9640    2.1240 c2        1 A3C     -0.105400
     18 C23        -3.2990    6.1690    1.8200 c3        1 A3C      0.027800
     19 C24        -2.4700    7.4350    2.0870 c3        1 A3C     -0.037400
     20 C25        -1.1660    7.3430    1.2950 c3        1 A3C     -0.030700
     21 C26        -0.4670    8.6860    1.2050 c3        1 A3C     -0.050000
     22 C27         0.8790    8.5670    0.4860 c3        1 A3C     -0.020400
     23 C28         1.7400    7.4870    1.1350 c3        1 A3C     -0.029400
     24 C29         1.0230    6.1420    1.0300 c3        1 A3C     -0.028400
     25 C30        -0.3070    6.1880    1.7850 c3        1 A3C     -0.040000
     26 C31        -2.8730    4.0120    2.9140 c2        1 A3C     -0.242000
     27 C32        -0.2750    9.3420    2.5700 c3        1 A3C     -0.011100
     28 C33        -1.3380    9.6360    0.3510 c3        1 A3C     -0.011100
     29 C34        -0.0390    6.2490    3.2880 c3        1 A3C     -0.034100
     30 H01        -0.3610   -0.8850   -0.5110 h1        1 A3C     -0.007800
     31 H01A       -0.3610    0.8840   -0.5110 h1        1 A3C     -0.007800
     32 H02        -0.0800   -0.8380    1.9780 hx        1 A3C      0.028200
     33 H02A       -1.5900   -0.0870    1.4430 hx        1 A3C      0.028200
     34 H11        -0.8800    2.3790    0.5030 hx        1 A3C      0.068700
     35 H11A       -1.9300    2.2960    1.9250 hx        1 A3C      0.068700
     36 H12        -0.3940    3.7310    3.1820 hc        1 A3C      0.041700
     37 H12A        0.7360    3.7530    1.8210 hc        1 A3C      0.041700
     38 H13        -1.2940    1.1630    3.8330 hx        1 A3C      0.023033
     39 H13A        0.1980    0.2150    3.8920 hx        1 A3C      0.023033
     40 H13B        0.2640    1.9770    4.0300 hx        1 A3C      0.023033
     41 H21        -1.1640    4.7410    0.4220 hc        1 A3C      0.058700
     42 H23        -3.6030    6.1460    0.7800 hc        1 A3C      0.013700
     43 H23A       -4.1720    6.1630    2.4610 hc        1 A3C      0.013700
     44 H24        -2.2470    7.5060    3.1450 hc        1 A3C      0.019700
     45 H24A       -3.0270    8.3080    1.7680 hc        1 A3C      0.019700
     46 H25        -1.4510    7.0910    0.2800 hc        1 A3C      0.033700
     47 H27         1.3970    9.5160    0.5420 hc        1 A3C      0.016700
     48 H27A        0.7060    8.3090   -0.5510 hc        1 A3C      0.016700
     49 H28         1.9000    7.7310    2.1780 hc        1 A3C      0.021700
     50 H28A        2.6930    7.4290    0.6220 hc        1 A3C      0.021700
     51 H29         1.6500    5.3690    1.4590 hc        1 A3C      0.041200
     52 H29A        0.8340    5.9180   -0.0130 hc        1 A3C      0.041200
     53 H31        -2.2480    3.1520    3.1220 ha        1 A3C      0.100500
     54 H31A       -3.8580    4.0870    3.3600 ha        1 A3C      0.100500
     55 H32        -0.2830   10.4200    2.4560 hc        1 A3C      0.006033
     56 H32A       -1.0800    9.0430    3.2310 hc        1 A3C      0.006033
     57 H32B        0.6730    9.0300    2.9910 hc        1 A3C      0.006033
     58 H33        -2.1850    9.9740    0.9360 hc        1 A3C      0.006033
     59 H33A       -1.6920    9.1100   -0.5270 hc        1 A3C      0.006033
     60 H33B       -0.7470   10.4910    0.0460 hc        1 A3C      0.006033
     61 H34         0.8460    5.6700    3.5220 hc        1 A3C      0.014367
     62 H34A       -0.8880    5.8420    3.8240 hc        1 A3C      0.014367
     63 H34B        0.1150    7.2790    3.5860 hc        1 A3C      0.014367
     64 H031        0.8440    1.4270    1.8870 hn        1 A3C      0.289800
@<TRIPOS>BOND
     1    1    2 1   
     2    1    3 1   
     3    1   30 1   
     4    1   31 1   
     5    2    4 1   
     6    3    5 1   
     7    3   32 1   
     8    3   33 1   
     9    4    6 1   
    10    4    9 1   
    11    4   10 1   
    12    5   13 1   
    13    5   15 1   
    14    5   64 1   
    15    6    7 1   
    16    7    8 1   
    17    7   11 1   
    18    7   12 1   
    19   13   14 1   
    20   13   34 1   
    21   13   35 1   
    22   14   16 1   
    23   14   36 1   
    24   14   37 1   
    25   15   38 1   
    26   15   39 1   
    27   15   40 1   
    28   16   17 1   
    29   16   25 1   
    30   16   41 1   
    31   17   18 1   
    32   17   26 2   
    33   18   19 1   
    34   18   42 1   
    35   18   43 1   
    36   19   20 1   
    37   19   44 1   
    38   19   45 1   
    39   20   21 1   
    40   20   25 1   
    41   20   46 1   
    42   21   22 1   
    43   21   27 1   
    44   21   28 1   
    45   22   23 1   
    46   22   47 1   
    47   22   48 1   
    48   23   24 1   
    49   23   49 1   
    50   23   50 1   
    51   24   25 1   
    52   24   51 1   
    53   24   52 1   
    54   25   29 1   
    55   26   53 1   
    56   26   54 1   
    57   27   55 1   
    58   27   56 1   
    59   27   57 1   
    60   28   58 1   
    61   28   59 1   
    62   28   60 1   
    63   29   61 1   
    64   29   62 1   
    65   29   63 1   
@<TRIPOS>SUBSTRUCTURE
     1 A3C         1 TEMP              0 ****  ****    0 ROOT
