@<TRIPOS>MOLECULE
A3C
   63    64     1     0     0
SMALL
bcc


@<TRIPOS>ATOM
      1 C01         0.3030    0.4020    0.6960 c3        1 A3C      0.213400
      2 O01         0.9010    1.0940   -0.3290 os        1 A3C     -0.566200
      3 C02         0.7760    0.9540    2.0650 c3        1 A3C      0.119800
      4 P02        -0.1840    1.9340   -1.3540 p5        1 A3C      1.584800
      5 N03        -0.2080    1.0200    3.1430 n3        1 A3C     -0.743600
      6 O03         0.7400    2.9660   -2.0590 os        1 A3C     -0.803800
      7 P04         1.6730    4.3140   -2.7230 p5        1 A3C      1.473900
      8 O05         3.0730    3.7960   -2.8650 o         1 A3C     -0.957833
      9 O06        -1.1020    2.5520   -0.3430 o         1 A3C     -0.928500
     10 O07        -0.7420    0.8380   -2.1910 o         1 A3C     -0.928500
     11 O08         0.9670    4.6460   -4.0050 o         1 A3C     -0.957833
     12 O09         1.5000    5.3620   -1.6430 o         1 A3C     -0.957833
     13 C11        -1.1540    2.1270    2.9550 c3        1 A3C      0.134800
     14 C12        -0.5570    3.5010    3.2960 c3        1 A3C     -0.048400
     15 C13        -0.8960   -0.2360    3.3390 c3        1 A3C      0.171100
     16 C21        -0.8140    4.4800    2.1620 c3        1 A3C     -0.085500
     17 C22        -2.2560    4.8570    2.0160 c2        1 A3C      0.010600
     18 C23        -2.5040    5.5600    0.7240 c3        1 A3C     -0.076200
     19 C24        -1.6610    6.8180    0.6410 c3        1 A3C     -0.047400
     20 C25        -0.1890    6.5140    0.8710 c3        1 A3C     -0.091700
     21 C26         0.7150    7.7380    0.6320 c3        1 A3C     -0.017000
     22 C27         2.1680    7.2640    0.7530 c3        1 A3C     -0.109400
     23 C28         2.4570    6.5670    2.0600 c3        1 A3C     -0.050400
     24 C29         1.5280    5.3920    2.2750 c3        1 A3C     -0.072400
     25 C30         0.0460    5.7720    2.2060 c3        1 A3C     -0.012000
     26 C31        -3.2390    4.5960    2.8840 c2        1 A3C     -0.339000
     27 C32         0.4490    8.9260    1.5470 c3        1 A3C     -0.094100
     28 C33         0.5380    8.1990   -0.8170 c3        1 A3C     -0.094100
     29 C34        -0.3380    6.5740    3.4400 c3        1 A3C     -0.080100
     30 H01         0.6100   -0.6870    0.6500 h1        1 A3C     -0.013300
     31 H01A       -0.8200    0.4520    0.6130 h1        1 A3C     -0.013300
     32 H02         1.1740    1.9940    1.8960 h1        1 A3C      0.040700
     33 H02A        1.6220    0.3150    2.4440 h1        1 A3C      0.040700
     34 H11        -2.0380    1.9510    3.6320 h1        1 A3C      0.060700
     35 H11A       -1.5320    2.1510    1.8820 h1        1 A3C      0.060700
     36 H12         0.5470    3.4140    3.4670 hc        1 A3C      0.017200
     37 H12A       -1.0030    3.8700    4.2560 hc        1 A3C      0.017200
     38 H13        -1.4590   -0.1960    4.3100 h1        1 A3C      0.002367
     39 H13A       -0.1400   -1.0620    3.4000 h1        1 A3C      0.002367
     40 H13B       -1.6270   -0.4910    2.5230 h1        1 A3C      0.002367
     41 H21        -0.5390    3.9330    1.1890 hc        1 A3C      0.192700
     42 H23        -2.2080    4.8430   -0.1040 hc        1 A3C      0.071200
     43 H23A       -3.5870    5.8200    0.6010 hc        1 A3C      0.071200
     44 H24        -2.0400    7.5720    1.3800 hc        1 A3C      0.011200
     45 H24A       -1.7890    7.2580   -0.3830 hc        1 A3C      0.011200
     46 H25         0.1380    5.7770    0.0440 hc        1 A3C      0.193700
     47 H27         2.8570    8.1390    0.6340 hc        1 A3C      0.084700
     48 H27A        2.3380    6.5320   -0.1070 hc        1 A3C      0.084700
     49 H28         2.3810    7.2830    2.9220 hc        1 A3C     -0.006800
     50 H28A        3.5150    6.1920    2.0470 hc        1 A3C     -0.006800
     51 H29         1.7590    4.9410    3.2760 hc        1 A3C      0.051700
     52 H29A        1.7260    4.6220    1.4770 hc        1 A3C      0.051700
     53 H31        -3.0830    4.0510    3.8210 ha        1 A3C      0.078000
     54 H31A       -4.2780    4.8840    2.6860 ha        1 A3C      0.078000
     55 H32         0.6270    9.8880    1.0030 hc        1 A3C      0.023200
     56 H32A        1.1270    8.9210    2.4340 hc        1 A3C      0.023200
     57 H32B       -0.6060    8.9270    1.9120 hc        1 A3C      0.023200
     58 H33         0.6500    7.3000   -1.4950 hc        1 A3C      0.023200
     59 H33A       -0.4550    8.6830   -0.9670 hc        1 A3C      0.023200
     60 H33B        1.3260    8.9480   -1.0760 hc        1 A3C      0.023200
     61 H34        -0.2660    5.9300    4.3510 hc        1 A3C      0.010367
     62 H34A       -1.3880    6.9430    3.3540 hc        1 A3C      0.010367
     63 H34B        0.3380    7.4480    3.5870 hc        1 A3C      0.010367
@<TRIPOS>BOND
     1    1    2 1   
     2    1    3 1   
     3    1   30 1   
     4    1   31 1   
     5    2    4 1   
     6    3    5 1   
     7    3   32 1   
     8    3   33 1   
     9    4    6 1   
    10    4    9 1   
    11    4   10 1   
    12    5   13 1   
    13    5   15 1   
    14    6    7 1   
    15    7    8 1   
    16    7   11 1   
    17    7   12 1   
    18   13   14 1   
    19   13   34 1   
    20   13   35 1   
    21   14   16 1   
    22   14   36 1   
    23   14   37 1   
    24   15   38 1   
    25   15   39 1   
    26   15   40 1   
    27   16   17 1   
    28   16   25 1   
    29   16   41 1   
    30   17   18 1   
    31   17   26 2   
    32   18   19 1   
    33   18   42 1   
    34   18   43 1   
    35   19   20 1   
    36   19   44 1   
    37   19   45 1   
    38   20   21 1   
    39   20   25 1   
    40   20   46 1   
    41   21   22 1   
    42   21   27 1   
    43   21   28 1   
    44   22   23 1   
    45   22   47 1   
    46   22   48 1   
    47   23   24 1   
    48   23   49 1   
    49   23   50 1   
    50   24   25 1   
    51   24   51 1   
    52   24   52 1   
    53   25   29 1   
    54   26   53 1   
    55   26   54 1   
    56   27   55 1   
    57   27   56 1   
    58   27   57 1   
    59   28   58 1   
    60   28   59 1   
    61   28   60 1   
    62   29   61 1   
    63   29   62 1   
    64   29   63 1   
@<TRIPOS>SUBSTRUCTURE
     1 A3C         1 TEMP              0 ****  ****    0 ROOT
