@<TRIPOS>MOLECULE
molecule
   63    64     1     0     0
SMALL
bcc


@<TRIPOS>ATOM
      1 C01          0.0000     0.0000     0.0000 c3         1 A3C       0.237400
      2 O01          1.4290     0.0000     0.0000 os         1 A3C      -0.583200
      3 C02         -0.5100     0.0000     1.4420 c3         1 A3C       0.151800
      4 P02          2.3060    -0.0010    -1.3500 p5         1 A3C       1.428800
      5 N03         -0.1190     1.2550     2.1000 n3         1 A3C      -0.676600
      6 O03          3.8670     0.1310    -0.9750 os         1 A3C      -0.709800
      7 P04          5.1780     0.5850    -1.7920 p5         1 A3C       1.305900
      8 O05          6.4930     0.0190    -1.0550 o          1 A3C      -0.951833
      9 O06          1.9050     1.1420    -2.1990 o          1 A3C      -0.870500
     10 O07          2.0600    -1.3760    -2.1490 o          1 A3C      -0.870500
     11 O08          5.1130     0.0460    -3.1690 o          1 A3C      -0.951833
     12 O09          5.2450     2.1930    -1.8490 o          1 A3C      -0.951833
     13 C11         -0.9040     2.3850     1.5860 c3         1 A3C       0.151800
     14 C12         -0.3080     3.6960     2.1020 c3         1 A3C      -0.081400
     15 C13         -0.2460     1.1450     3.5600 c3         1 A3C       0.152100
     16 C21         -1.0650     4.8760     1.4920 c3         1 A3C      -0.024500
     17 C22         -2.4370     4.9640     2.1240 c2         1 A3C      -0.109400
     18 C23         -3.2990     6.1690     1.8200 c3         1 A3C      -0.042200
     19 C24         -2.4700     7.4350     2.0870 c3         1 A3C      -0.074400
     20 C25         -1.1660     7.3430     1.2950 c3         1 A3C      -0.042700
     21 C26         -0.4670     8.6860     1.2050 c3         1 A3C      -0.051000
     22 C27          0.8790     8.5670     0.4860 c3         1 A3C      -0.069400
     23 C28          1.7400     7.4870     1.1350 c3         1 A3C      -0.080400
     24 C29          1.0230     6.1420     1.0300 c3         1 A3C      -0.072400
     25 C30         -0.3070     6.1880     1.7850 c3         1 A3C      -0.044000
     26 C31         -2.8730     4.0120     2.9140 c2         1 A3C      -0.260000
     27 C32         -0.2750     9.3420     2.5700 c3         1 A3C      -0.086600
     28 C33         -1.3380     9.6360     0.3510 c3         1 A3C      -0.086600
     29 C34         -0.0390     6.2490     3.2880 c3         1 A3C      -0.088100
     30 H01         -0.3610     0.8840    -0.5110 h1         1 A3C       0.014200
     31 H01A        -0.3610    -0.8850    -0.5110 h1         1 A3C       0.014200
     32 H02         -0.0800    -0.8380     1.9770 h1         1 A3C       0.008700
     33 H02A        -1.5900    -0.0870     1.4430 h1         1 A3C       0.008700
     34 H11         -1.9300     2.2960     1.9250 h1         1 A3C       0.038700
     35 H11A        -0.8800     2.3790     0.5030 h1         1 A3C       0.038700
     36 H12          0.7360     3.7530     1.8210 hc         1 A3C       0.061200
     37 H12A        -0.3940     3.7310     3.1820 hc         1 A3C       0.061200
     38 H13         -1.2900     1.2230     3.8380 h1         1 A3C       0.011033
     39 H13A         0.3140     1.9440     4.0320 h1         1 A3C       0.011033
     40 H13B         0.1450     0.1890     3.8850 h1         1 A3C       0.011033
     41 H21         -1.1640     4.7410     0.4220 hc         1 A3C       0.080700
     42 H23         -3.6030     6.1460     0.7800 hc         1 A3C       0.035200
     43 H23A        -4.1720     6.1630     2.4610 hc         1 A3C       0.035200
     44 H24         -3.0270     8.3080     1.7680 hc         1 A3C       0.031700
     45 H24A        -2.2470     7.5060     3.1450 hc         1 A3C       0.031700
     46 H25         -1.4510     7.0910     0.2800 hc         1 A3C       0.049700
     47 H27          1.3970     9.5160     0.5420 hc         1 A3C       0.036700
     48 H27A         0.7060     8.3080    -0.5510 hc         1 A3C       0.036700
     49 H28          2.6930     7.4290     0.6220 hc         1 A3C       0.044700
     50 H28A         1.9000     7.7310     2.1780 hc         1 A3C       0.044700
     51 H29          0.8340     5.9180    -0.0130 hc         1 A3C       0.076200
     52 H29A         1.6500     5.3690     1.4590 hc         1 A3C       0.076200
     53 H31         -3.8590     4.0860     3.3580 ha         1 A3C       0.118000
     54 H31A        -2.2490     3.1510     3.1200 ha         1 A3C       0.118000
     55 H32         -1.1650     9.1950     3.1700 hc         1 A3C       0.027033
     56 H32A        -0.1000    10.4030     2.4390 hc         1 A3C       0.027033
     57 H32B         0.5750     8.8950     3.0690 hc         1 A3C       0.027033
     58 H33         -0.7560    10.5070     0.0730 hc         1 A3C       0.027033
     59 H33A        -2.2030     9.9480     0.9250 hc         1 A3C       0.027033
     60 H33B        -1.6650     9.1200    -0.5430 hc         1 A3C       0.027033
     61 H34          0.7820     5.5880     3.5360 hc         1 A3C       0.032033
     62 H34A        -0.9270     5.9400     3.8260 hc         1 A3C       0.032033
     63 H34B         0.2180     7.2640     3.5680 hc         1 A3C       0.032033
@<TRIPOS>BOND
     1     2     1 1
     2     1     3 1
     3     1    30 1
     4     1    31 1
     5     4     2 1
     6     3     5 1
     7     3    32 1
     8     3    33 1
     9     9     4 1
    10    10     4 1
    11     4     6 1
    12    13     5 1
    13     5    15 1
    14     7     6 1
    15    11     7 1
    16    12     7 1
    17     7     8 1
    18    13    14 1
    19    13    34 1
    20    13    35 1
    21    14    16 1
    22    14    36 1
    23    14    37 1
    24    15    38 1
    25    15    39 1
    26    15    40 1
    27    25    16 1
    28    16    17 1
    29    16    41 1
    30    17    18 1
    31    17    26 2
    32    19    18 1
    33    18    42 1
    34    18    43 1
    35    20    19 1
    36    19    44 1
    37    19    45 1
    38    21    20 1
    39    25    20 1
    40    20    46 1
    41    22    21 1
    42    28    21 1
    43    21    27 1
    44    23    22 1
    45    22    47 1
    46    22    48 1
    47    23    24 1
    48    23    49 1
    49    23    50 1
    50    24    25 1
    51    24    51 1
    52    24    52 1
    53    25    29 1
    54    26    53 1
    55    26    54 1
    56    27    55 1
    57    27    56 1
    58    27    57 1
    59    28    58 1
    60    28    59 1
    61    28    60 1
    62    29    61 1
    63    29    62 1
    64    29    63 1
@<TRIPOS>SUBSTRUCTURE
     1 A3C         1 TEMP              0 ****  ****    0 ROOT
