@<TRIPOS>MOLECULE
molecule
   54    57     1     0     0
SMALL
bcc


@<TRIPOS>ATOM
      1 O            0.0000     0.0000     0.0000 os         1 A3E      -0.426600
      2 C1          -6.2210     6.2110     9.0540 c3         1 A3E      -0.110100
      3 N1          -4.4800     7.8240     8.4650 na         1 A3E       0.133400
      4 C2          -5.9280     7.6050     8.4940 c3         1 A3E       0.059000
      5 N2          -2.5470     8.4420     9.0550 nc         1 A3E      -0.373000
      6 C3          -6.4890     7.7120     7.0750 c3         1 A3E      -0.110100
      7 N3          -3.7920     8.4150     9.3770 nd         1 A3E      -0.203800
      8 C4          -3.6420     7.4370     7.4780 cd         1 A3E      -0.282600
      9 N4           0.9030     8.5440     6.2880 nb         1 A3E      -0.766000
     10 C5          -2.3950     7.8380     7.8630 cc         1 A3E       0.337800
     11 N5          -0.5290     9.9520     7.4950 nv         1 A3E      -0.993500
     12 C6          -1.1260     7.6450     7.1170 ca         1 A3E      -0.304800
     13 N6           1.3800     1.1620     2.1530 n3         1 A3E      -0.722600
     14 C7          -0.8110     6.4060     6.5680 ca         1 A3E      -0.029000
     15 C8           0.3960     6.2770     5.8730 cp         1 A3E      -0.234300
     16 C9           1.2340     7.3830     5.7560 ca         1 A3E       0.489200
     17 C10         -0.2280     8.7100     6.9530 ca         1 A3E       0.734200
     18 C11          0.7790     4.9770     5.2700 cp         1 A3E      -0.010000
     19 C12         -0.0650     3.8750     5.3870 ca         1 A3E      -0.131000
     20 C13          0.2960     2.6680     4.8230 ca         1 A3E      -0.110000
     21 C14          1.4950     2.5520     4.1430 ca         1 A3E      -0.088300
     22 C15          2.3380     3.6430     4.0240 ca         1 A3E      -0.110000
     23 C16          1.9840     4.8550     4.5790 ca         1 A3E      -0.131000
     24 C17          1.8860     1.2310     3.5300 c3         1 A3E       0.209100
     25 C18          1.9360     0.0000     1.4450 c3         1 A3E       0.121300
     26 C19          1.4300     0.0000     0.0000 c3         1 A3E       0.139400
     27 C20         -0.5750     1.1170     0.6810 c3         1 A3E       0.139400
     28 C21         -0.0900     1.1290     2.1330 c3         1 A3E       0.121300
     29 H1          -5.7650     6.1120    10.0310 hc         1 A3E       0.053033
     30 H2          -7.2920     6.0740     9.1400 hc         1 A3E       0.053033
     31 H3          -5.8140     5.4610     8.3870 hc         1 A3E       0.053033
     32 H4          -6.3940     8.3520     9.1240 h1         1 A3E       0.090700
     33 H5          -6.1950     6.8400     6.5030 hc         1 A3E       0.053033
     34 H6          -6.0990     8.6040     6.5990 hc         1 A3E       0.053033
     35 H7          -7.5700     7.7690     7.1170 hc         1 A3E       0.053033
     36 H8          -3.9050     6.9150     6.5660 h4         1 A3E       0.185000
     37 H9           0.1060    10.7170     7.3790 hn         1 A3E       0.448800
     38 H10         -1.3840    10.0850     7.9990 hn         1 A3E       0.448800
     39 H12         -1.4830     5.5630     6.6760 ha         1 A3E       0.139000
     40 H13          2.1700     7.2890     5.2190 h4         1 A3E       0.026100
     41 H14         -1.0050     3.9660     5.9190 ha         1 A3E       0.130000
     42 H15         -0.3600     1.8110     4.9130 ha         1 A3E       0.131500
     43 H16          3.2750     3.5460     3.4890 ha         1 A3E       0.131500
     44 H17          2.6450     5.7080     4.4860 ha         1 A3E       0.130000
     45 H18          1.4600     0.4230     4.1130 h1         1 A3E       0.040700
     46 H19          2.9650     1.1420     3.5230 h1         1 A3E       0.040700
     47 H20          3.0170     0.0590     1.4480 h1         1 A3E       0.043700
     48 H21          1.6160    -0.9100     1.9380 h1         1 A3E       0.043700
     49 H22          1.7910    -0.8870    -0.5080 h1         1 A3E       0.053200
     50 H23          1.7910     0.8860    -0.5080 h1         1 A3E       0.053200
     51 H24         -1.6550     1.0340     0.6630 h1         1 A3E       0.053200
     52 H25         -0.2700     2.0340     0.1910 h1         1 A3E       0.053200
     53 H26         -0.4770     2.0070     2.6360 h1         1 A3E       0.043700
     54 H27         -0.4380     0.2350     2.6370 h1         1 A3E       0.043700
@<TRIPOS>BOND
     1     6     4 1
     2     2     4 1
     3     4     3 1
     4     3     7 1
     5     3     8 1
     6     7     5 2
     7     8    10 2
     8     5    10 1
     9    10    12 1
    10    27    28 1
    11    27     1 1
    12    12    14 ar
    13    12    17 ar
    14    14    15 ar
    15    28    13 1
    16    19    20 ar
    17    19    18 ar
    18     1    26 1
    19    11    17 1
    20    20    21 ar
    21    17     9 ar
    22    15    18 1
    23    15    16 ar
    24    18    23 ar
    25    13    24 1
    26    13    25 1
    27    21    24 1
    28    21    22 ar
    29     9    16 ar
    30    26    25 1
    31    23    22 ar
    32     2    29 1
    33     2    30 1
    34     2    31 1
    35     4    32 1
    36     6    33 1
    37     6    34 1
    38     6    35 1
    39     8    36 1
    40    11    37 1
    41    11    38 1
    42    14    39 1
    43    16    40 1
    44    19    41 1
    45    20    42 1
    46    22    43 1
    47    23    44 1
    48    24    45 1
    49    24    46 1
    50    25    47 1
    51    25    48 1
    52    26    49 1
    53    26    50 1
    54    27    51 1
    55    27    52 1
    56    28    53 1
    57    28    54 1
@<TRIPOS>SUBSTRUCTURE
     1 A3E         1 TEMP              0 ****  ****    0 ROOT
