@<TRIPOS>MOLECULE
molecule
   46    48     1     0     0
SMALL
bcc


@<TRIPOS>ATOM
      1 CAA          0.0000     0.0000     0.0000 c3         1 A3F       0.126200
      2 CAB          6.0120     0.0020     3.8940 c3         1 A3F       0.126200
      3 CAC          4.5270     1.2740    -0.4030 c3         1 A3F       0.135700
      4 CAF          2.0710    -3.6720     9.0630 ca         1 A3F      -0.105000
      5 CAG          1.2870    -3.6240    10.2000 ca         1 A3F      -0.174000
      6 CAH          1.8490    -2.7830     8.0300 ca         1 A3F      -0.142000
      7 CAI         -0.4190     0.0740     7.1210 ca         1 A3F       0.488200
      8 CAJ          0.0450    -1.7860     9.2800 ca         1 A3F      -0.149000
      9 CAK          1.2930    -0.0010     2.3720 ca         1 A3F      -0.255500
     10 CAL          3.3170     0.0000     3.6850 ca         1 A3F      -0.255500
     11 CAM          1.3830    -0.9190     5.8710 ca         1 A3F      -0.026000
     12 NAN         -0.6410     0.9290     6.1430 nb         1 A3F      -0.763000
     13 OAO          1.4280     0.0000     0.0000 os         1 A3F      -0.310400
     14 CAR          0.2740    -2.6820    10.3110 ca         1 A3F       0.116100
     15 CAS          0.0800     0.9260     5.0340 ca         1 A3F       0.722200
     16 CAT          0.8340    -1.8340     8.1330 cp         1 A3F       0.001000
     17 CAU          0.5940    -0.8780     7.0250 cp         1 A3F      -0.230300
     18 CAV          1.9260     0.0000     3.6140 cp         1 A3F       0.045000
     19 CAW          2.0470    -0.0000     1.2110 ca         1 A3F       0.160600
     20 CAX          4.0690     0.0000     2.5220 ca         1 A3F       0.160600
     21 CAY          1.1200    -0.0000     4.8580 cp         1 A3F      -0.240300
     22 CAZ          3.4350     0.0010     1.2830 ca         1 A3F       0.046100
     23 HAA         -0.3610    -0.0610    -1.0200 h1         1 A3F       0.043367
     24 HAAA        -0.3610     0.9130     0.4570 h1         1 A3F       0.043367
     25 HAAB        -0.3610    -0.8530     0.5620 h1         1 A3F       0.043367
     26 HAB          5.6790     0.8770     4.4380 h1         1 A3F       0.043367
     27 HABA         7.0900     0.0280     3.7930 h1         1 A3F       0.043367
     28 HABB         5.7210    -0.8920     4.4340 h1         1 A3F       0.043367
     29 HAC          4.1080     1.3700    -1.3970 h1         1 A3F       0.033700
     30 HACA         5.6060     1.3570    -0.4560 h1         1 A3F       0.033700
     31 HACB         4.1350     2.0600     0.2320 h1         1 A3F       0.033700
     32 HNAD        -0.9280     2.5170     4.1580 hn         1 A3F       0.445300
     33 HNAA         0.3730     1.8760     3.2100 hn         1 A3F       0.445300
     34 HOAE         0.0230    -2.3250    12.1550 ho         1 A3F       0.420000
     35 HAF          2.8600    -4.4100     8.9810 ha         1 A3F       0.133000
     36 HAG          1.4640    -4.3240    11.0080 ha         1 A3F       0.137000
     37 HAH          2.4650    -2.8230     7.1390 ha         1 A3F       0.132000
     38 HAI         -1.0330     0.1110     8.0130 h4         1 A3F       0.029100
     39 HAJ         -0.7460    -1.0500     9.3660 ha         1 A3F       0.143000
     40 HAK          0.2110    -0.0010     2.3160 ha         1 A3F       0.146500
     41 HAL          3.8110     0.0010     4.6490 ha         1 A3F       0.146500
     42 HAM          2.1780    -1.6480     5.7680 ha         1 A3F       0.146000
     43 NAD         -0.1940     1.8480     4.0340 nv         1 A3F      -1.007500
     44 OAP          5.4270     0.0000     2.5900 os         1 A3F      -0.310400
     45 OAQ          4.1750     0.0010     0.1420 os         1 A3F      -0.322900
     46 OAE         -0.4940    -2.6390    11.4310 oh         1 A3F      -0.519100
@<TRIPOS>BOND
     1     1    13 1
     2     2    44 1
     3     3    45 1
     4    43    15 1
     5    46    14 1
     6     4     5 ar
     7     4     6 ar
     8     5    14 ar
     9     6    16 ar
    10     7    12 ar
    11     7    17 ar
    12     8    14 ar
    13     8    16 ar
    14     9    18 ar
    15     9    19 ar
    16    10    18 ar
    17    10    20 ar
    18    11    17 ar
    19    11    21 ar
    20    12    15 ar
    21    13    19 1
    22    44    20 1
    23    45    22 1
    24    15    21 ar
    25    16    17 1
    26    18    21 1
    27    19    22 ar
    28    20    22 ar
    29     1    23 1
    30     1    24 1
    31     1    25 1
    32     2    26 1
    33     2    27 1
    34     2    28 1
    35     3    29 1
    36     3    30 1
    37     3    31 1
    38    43    32 1
    39    43    33 1
    40    46    34 1
    41     4    35 1
    42     5    36 1
    43     6    37 1
    44     7    38 1
    45     8    39 1
    46     9    40 1
    47    10    41 1
    48    11    42 1
@<TRIPOS>SUBSTRUCTURE
     1 A3F         1 TEMP              0 ****  ****    0 ROOT
