@<TRIPOS>MOLECULE
molecule
   41    43     1     0     0
SMALL
bcc


@<TRIPOS>ATOM
      1 C            0.0000     0.0000     0.0000 c          1 A3G       0.638100
      2 N            0.2010     0.0100    -2.4220 nz         1 A3G      -0.792600
      3 O            1.2130     0.0000     0.0000 o          1 A3G      -0.606100
      4 N1          -4.9900     1.1840     7.5130 nb         1 A3G      -0.763000
      5 C2          -5.0450     1.0760     6.1970 ca         1 A3G       0.709900
      6 N3          -4.0500     0.5900     5.4860 nb         1 A3G      -0.764000
      7 C4          -2.9310     0.1800     6.0760 ca         1 A3G       0.441800
      8 C5          -2.8230     0.2740     7.4740 ca         1 A3G      -0.154200
      9 C6          -3.9120     0.8000     8.1900 ca         1 A3G       0.788200
     10 N6          -3.8640     0.9180     9.5680 nv         1 A3G      -1.071500
     11 N7          -1.6020    -0.2030     7.8130 nc         1 A3G      -0.558100
     12 C8          -0.9690    -0.5760     6.7380 cd         1 A3G       0.439700
     13 N8          -0.6730     0.0000     1.1670 ns         1 A3G      -0.521900
     14 N9          -1.7470    -0.3590     5.6410 na         1 A3G      -0.266000
     15 CA          -0.7540     0.0050    -1.3050 c3         1 A3G       0.013800
     16 C1'         -1.3860    -0.6490     4.2510 c3         1 A3G       0.259800
     17 C2'         -0.8080     0.6140     3.5630 c3         1 A3G       0.089100
     18 O2'         -1.8540     1.4220     3.0180 oh         1 A3G      -0.587800
     19 C3'          0.0590     0.0010     2.4360 c3         1 A3G       0.049700
     20 C4'          0.3240    -1.4420     2.9070 c3         1 A3G       0.130100
     21 O4'         -0.2950    -1.5920     4.1960 os         1 A3G      -0.380600
     22 C5'          1.8310    -1.6830     3.0220 c3         1 A3G       0.142400
     23 O5'          2.0700    -3.0540     3.3460 oh         1 A3G      -0.592800
     24 HN          -0.3000     0.0230    -3.2880 hn         1 A3G       0.467467
     25 HNA          0.7700    -0.8120    -2.3770 hn         1 A3G       0.467467
     26 HN6         -3.5280     1.7630     9.9870 hn         1 A3G       0.450800
     27 HN6A        -4.1940     0.1700    10.1460 hn         1 A3G       0.450800
     28 HN8         -1.6740    -0.0260     1.1670 hn         1 A3G       0.350500
     29 HA          -1.3760    -0.8800    -1.3660 hx         1 A3G       0.128700
     30 HAA         -1.3770     0.8890    -1.3590 hx         1 A3G       0.128700
     31 H1'         -2.2400    -1.0240     3.7000 h2         1 A3G       0.097700
     32 H2'         -0.1950     1.1800     4.2530 h1         1 A3G       0.087700
     33 HO2'        -1.6530     2.3330     3.1570 ho         1 A3G       0.427000
     34 H3'          0.9920     0.5430     2.3410 h1         1 A3G       0.104700
     35 H4'         -0.1140    -2.1430     2.2060 h1         1 A3G       0.070700
     36 H5'          2.2390    -1.0520     3.8020 h1         1 A3G       0.039200
     37 H5'A         2.3080    -1.4470     2.0790 h1         1 A3G       0.039200
     38 HO5'         2.9980    -3.2220     3.3370 ho         1 A3G       0.418000
     39 H2          -5.9550     1.3940     5.7030 h5         1 A3G       0.066100
     40 HN3          0.7230     0.8630    -2.4100 hn         1 A3G       0.467467
     41 H8           0.0300    -0.9960     6.7190 h5         1 A3G       0.093800
@<TRIPOS>BOND
     1     1     3 2
     2     1    13 1
     3     1    15 1
     4     2    15 1
     5     4     5 ar
     6     4     9 ar
     7     5     6 ar
     8     6     7 ar
     9     7     8 ar
    10     7    14 1
    11     8     9 ar
    12     8    11 1
    13     9    10 1
    14    11    12 2
    15    12    14 1
    16    13    19 1
    17    14    16 1
    18    16    17 1
    19    16    21 1
    20    17    18 1
    21    17    19 1
    22    19    20 1
    23    20    21 1
    24    20    22 1
    25    22    23 1
    26     2    24 1
    27     2    25 1
    28     5    39 1
    29    10    26 1
    30    10    27 1
    31    12    41 1
    32    13    28 1
    33    15    29 1
    34    15    30 1
    35    16    31 1
    36    17    32 1
    37    18    33 1
    38    19    34 1
    39    20    35 1
    40    22    36 1
    41    22    37 1
    42    23    38 1
    43    40     2 1
@<TRIPOS>SUBSTRUCTURE
     1 A3G         1 TEMP              0 ****  ****    0 ROOT
