@<TRIPOS>MOLECULE
A3H
   41    44     1     0     0
SMALL
bcc


@<TRIPOS>ATOM
      1 N            0.0000     0.0000     0.0000 nb         1 A3H      -0.616000
      2 C            2.0480     0.0000     1.1880 ca         1 A3H      -0.253300
      3 C1           1.3220     0.0000     0.0000 ca         1 A3H       0.508200
      4 N1          -2.0550    -0.0010     1.3860 na         1 A3H       0.281900
      5 C2           1.3640    -0.0000     2.4010 cp         1 A3H       0.091000
      6 C3          -2.2830    -0.0020     2.7260 cc         1 A3H      -0.234100
      7 N3           2.0020     0.0010    -1.2130 nu         1 A3H      -0.411600
      8 C4          -1.0940    -0.0020     3.3920 cd         1 A3H       0.005100
      9 N4           0.7700    -0.3220    -4.5390 na         1 A3H       0.488400
     10 C5          -0.0410    -0.0010     2.3640 ca         1 A3H      -0.211100
     11 N5           1.8150    -0.2370    -3.6110 nc         1 A3H      -0.673800
     12 C6          -0.7030    -0.0000     1.1270 ca         1 A3H       0.247800
     13 C7          -0.9070    -0.0020     4.8120 ch         1 A3H       0.241500
     14 C8           2.0950    -0.0010     3.6900 cp         1 A3H      -0.054000
     15 C9           1.7650     0.9220     4.6820 ca         1 A3H      -0.093000
     16 C10          2.4490     0.9170     5.8810 ca         1 A3H      -0.082000
     17 C11          3.4600    -0.0020     6.0990 ca         1 A3H      -0.092000
     18 C12          3.7910    -0.9200     5.1180 ca         1 A3H      -0.090300
     19 C13          3.1110    -0.9280     3.9190 ca         1 A3H      -0.087000
     20 C14          1.2910    -0.1140    -2.4150 cd         1 A3H       0.431200
     21 C15         -0.1070    -0.1190    -2.5490 cd         1 A3H      -0.356300
     22 C16         -0.3960    -0.2490    -3.8630 cc         1 A3H      -0.248300
     23 C18          4.8940    -1.9170     5.3640 c3         1 A3H       0.064200
     24 H1           3.1310     0.0000     1.1610 ha         1 A3H       0.132000
     25 H2          -2.7560    -0.0010     0.6710 hn         1 A3H       0.121700
     26 H3          -3.2530    -0.0370     3.2060 h4         1 A3H       0.151000
     27 H4           2.5940    -0.7690    -1.4550 hn         1 A3H       0.280800
     28 H5           0.9740     1.6420     4.5100 ha         1 A3H       0.114000
     29 H6           2.1950     1.6340     6.6520 ha         1 A3H       0.108000
     30 H7           3.9960    -0.0040     7.0410 ha         1 A3H       0.106000
     31 H8           3.3670    -1.6500     3.1530 ha         1 A3H       0.109000
     32 H9          -0.8240    -0.0780    -1.7380 ha         1 A3H       0.178000
     33 H10         -1.3880    -0.2860    -4.2980 h4         1 A3H       0.140000
     34 H11          0.6500     0.4700    -6.4710 h1         1 A3H       0.019367
     35 H12          1.9430    -0.7120    -6.2270 h1         1 A3H       0.019367
     36 H13          0.2620    -1.2510    -6.3430 h1         1 A3H       0.019367
     37 H14          4.8050    -2.7350     4.6600 hc         1 A3H       0.007367
     38 H15          5.8540    -1.4320     5.2340 hc         1 A3H       0.007367
     39 H16          4.8170    -2.2990     6.3750 hc         1 A3H       0.007367
     40 C17          0.9160    -0.4630    -5.9900 c3         1 A3H       0.026600
     41 N2          -0.7740    -0.0140     5.9410 n1         1 A3H      -0.404800
@<TRIPOS>BOND
     1     1     3 ar  
     2     1    12 ar  
     3     2     3 ar  
     4     2     5 ar  
     5     2    24 1   
     6     3     7 1   
     7     4     6 1   
     8     4    12 1   
     9     4    25 1   
    10     5    10 ar  
    11     5    14 1   
    12     6     8 2   
    13     6    26 1   
    14     7    20 1   
    15     7    27 1   
    16     8    10 1   
    17     8    13 1   
    18     9    11 1   
    19     9    22 1   
    20     9    40 1   
    21    10    12 ar  
    22    11    20 2   
    23    13    41 3   
    24    14    15 ar  
    25    14    19 ar  
    26    15    16 ar  
    27    15    28 1   
    28    16    17 ar  
    29    16    29 1   
    30    17    18 ar  
    31    17    30 1   
    32    18    19 ar  
    33    18    23 1   
    34    19    31 1   
    35    20    21 1   
    36    21    22 2   
    37    21    32 1   
    38    22    33 1   
    39    23    37 1   
    40    23    38 1   
    41    23    39 1   
    42    34    40 1   
    43    35    40 1   
    44    36    40 1   
@<TRIPOS>SUBSTRUCTURE
     1 A3H         1 TEMP              0 ****  ****    0 ROOT
