@<TRIPOS>MOLECULE
molecule
   41    44     1     0     0
SMALL
bcc


@<TRIPOS>ATOM
      1 N            0.0000     0.0000     0.0000 nb         1 A3H      -0.760000
      2 C            2.0480     0.0000     1.1880 ca         1 A3H      -0.272300
      3 C1           1.3220     0.0000     0.0000 ca         1 A3H       0.681200
      4 N1          -2.0550    -0.0010     1.3860 na         1 A3H      -0.268100
      5 C2           1.3640    -0.0000     2.4010 cp         1 A3H       0.074000
      6 C3          -2.2830    -0.0020     2.7260 cc         1 A3H      -0.048100
      7 N3           2.0020     0.0010    -1.2130 nu         1 A3H      -0.745600
      8 C4          -1.0940    -0.0020     3.3920 cc         1 A3H      -0.048900
      9 N4           0.7700    -0.3220    -4.5390 na         1 A3H       0.064400
     10 C5          -0.0410    -0.0010     2.3640 ca         1 A3H      -0.209100
     11 N5           1.8150    -0.2370    -3.6110 nc         1 A3H      -0.537800
     12 C6          -0.7030    -0.0000     1.1270 ca         1 A3H       0.488800
     13 C7          -0.9070    -0.0020     4.8120 cg         1 A3H       0.237500
     14 C8           2.0950    -0.0010     3.6900 cp         1 A3H      -0.054000
     15 C9           1.7650     0.9220     4.6820 ca         1 A3H      -0.108000
     16 C10          2.4490     0.9170     5.8810 ca         1 A3H      -0.116000
     17 C11          3.4600    -0.0020     6.0990 ca         1 A3H      -0.117000
     18 C12          3.7910    -0.9200     5.1180 ca         1 A3H      -0.085300
     19 C13          3.1110    -0.9280     3.9190 ca         1 A3H      -0.109000
     20 C14          1.2910    -0.1140    -2.4150 cd         1 A3H       0.500200
     21 C15         -0.1070    -0.1190    -2.5490 cd         1 A3H      -0.348300
     22 C16         -0.3960    -0.2490    -3.8630 cc         1 A3H      -0.120300
     23 C18          4.8940    -1.9170     5.3640 c3         1 A3H      -0.047800
     24 H1           3.1310     0.0000     1.1610 ha         1 A3H       0.157000
     25 H2          -2.7560    -0.0010     0.6710 hn         1 A3H       0.310700
     26 H3          -3.2530    -0.0370     3.2060 h4         1 A3H       0.183000
     27 H4           2.5940    -0.7690    -1.4550 hn         1 A3H       0.416800
     28 H5           0.9740     1.6420     4.5100 ha         1 A3H       0.140000
     29 H6           2.1950     1.6340     6.6520 ha         1 A3H       0.137000
     30 H7           3.9960    -0.0040     7.0410 ha         1 A3H       0.132000
     31 H8           3.3670    -1.6500     3.1530 ha         1 A3H       0.133000
     32 H9          -0.8240    -0.0780    -1.7380 ha         1 A3H       0.193000
     33 H10         -1.3880    -0.2860    -4.2980 h4         1 A3H       0.166000
     34 H11          0.6500     0.4700    -6.4710 h1         1 A3H       0.053033
     35 H12          1.9430    -0.7120    -6.2270 h1         1 A3H       0.053033
     36 H13          0.2620    -1.2510    -6.3430 h1         1 A3H       0.053033
     37 H14          4.8050    -2.7350     4.6600 hc         1 A3H       0.043700
     38 H15          5.8540    -1.4320     5.2340 hc         1 A3H       0.043700
     39 H16          4.8170    -2.2990     6.3750 hc         1 A3H       0.043700
     40 C17          0.9160    -0.4630    -5.9900 c3         1 A3H       0.067600
     41 N2          -0.7740    -0.0140     5.9410 n1         1 A3H      -0.375800
@<TRIPOS>BOND
     1    23    18 1
     2    18    17 ar
     3    18    19 ar
     4    17    16 ar
     5    19    14 ar
     6    41    13 3
     7    16    15 ar
     8    13     8 1
     9    14    15 ar
    10    14     5 1
    11     8    10 1
    12     8     6 2
    13     5    10 ar
    14     5     2 ar
    15    10    12 ar
    16     6     4 1
    17     2     3 ar
    18    12     4 1
    19    12     1 ar
    20     3     1 ar
    21     3     7 1
    22    11     9 1
    23    11    20 2
    24    40     9 1
    25     9    22 1
    26     7    20 1
    27    20    21 1
    28    22    21 2
    29     2    24 1
    30     4    25 1
    31     6    26 1
    32     7    27 1
    33    15    28 1
    34    16    29 1
    35    17    30 1
    36    19    31 1
    37    21    32 1
    38    22    33 1
    39    40    34 1
    40    40    35 1
    41    40    36 1
    42    23    37 1
    43    23    38 1
    44    23    39 1
@<TRIPOS>SUBSTRUCTURE
     1 A3H         1 TEMP              0 ****  ****    0 ROOT
