@<TRIPOS>MOLECULE
A3J
   41    43     1     0     0
SMALL
bcc


@<TRIPOS>ATOM
      1 N3          -1.0480    -0.0060     6.6250 n1         1 A3J      -0.338800
      2 C4           0.0000     0.0000     0.0000 cc         1 A3J      -0.250800
      3 N2          -1.6480     0.0080     1.9170 nb         1 A3J      -0.440000
      4 C7           0.5970     0.0040     3.5340 ca         1 A3J       0.067600
      5 C6           0.7220     0.0030     2.1410 ca         1 A3J      -0.360500
      6 C9          -1.8040     0.0090     3.2190 ca         1 A3J       0.253600
      7 C13          3.9700    -0.7750     4.6110 c3         1 A3J      -0.071400
      8 C8          -0.6990     0.0070     4.0810 ca         1 A3J       0.003700
      9 C16          5.0790     1.2960     3.6930 c3         1 A3J       0.000900
     10 C1           2.4040     1.4380    -1.7200 c3         1 A3J      -0.193100
     11 C3           1.3450     0.0000     0.0000 cd         1 A3J      -0.281300
     12 C5          -0.4370     0.0050     1.3500 ca         1 A3J       0.374100
     13 N1           1.8030     0.0000     1.2850 na         1 A3J       0.395600
     14 C10         -3.1940     0.0120     3.7970 c3         1 A3J       0.543600
     15 F1          -4.1300    -0.1010     2.7640 f          1 A3J      -0.201300
     16 F2          -3.3370    -1.0680     4.6760 f          1 A3J      -0.201300
     17 F3          -3.4090     1.2080     4.4920 f          1 A3J      -0.201300
     18 C11         -0.8880     0.0090     5.5010 cg         1 A3J       0.221800
     19 N4           1.7170     0.0020     4.3510 nh         1 A3J      -0.382000
     20 C12          2.5820    -1.1720     4.0670 c3         1 A3J       0.097800
     21 C14          3.9730     0.7680     4.6110 c3         1 A3J       0.210800
     22 C15          2.5860     1.1720     4.0670 c3         1 A3J       0.000800
     23 O1           4.1500     1.2650     5.9380 oh         1 A3J      -0.586800
     24 H7          -0.6370    -0.0400    -0.8760 ha         1 A3J       0.147000
     25 H10          4.2750    -1.4600     5.3930 hc         1 A3J       0.040200
     26 H11          4.6970    -0.7660     3.8080 hc         1 A3J       0.040200
     27 H15          4.9530     2.3630     3.5540 hc         1 A3J       0.014033
     28 H14          6.0450     1.1020     4.1440 hc         1 A3J       0.014033
     29 H16          5.0210     0.7980     2.7340 hc         1 A3J       0.014033
     30 H2           3.0340     1.9760    -1.0230 hc         1 A3J       0.051700
     31 H4           2.1630     2.0800    -2.5590 hc         1 A3J       0.051700
     32 H3           1.4910     1.1360    -1.2230 hc         1 A3J       0.051700
     33 H5           3.1790    -0.4310    -0.9930 hc         1 A3J       0.015700
     34 H6           1.7390    -0.5850    -2.0090 hc         1 A3J       0.015700
     35 H1           2.7670    -0.0010     1.5550 hn         1 A3J       0.133700
     36 H8           2.6890    -1.7440     3.1530 h1         1 A3J       0.038200
     37 H9           2.0390    -1.7430     4.8110 h1         1 A3J       0.038200
     38 H12          2.1660     1.7300     3.2390 h1         1 A3J       0.056700
     39 H13          2.6220     1.8050     4.9450 h1         1 A3J       0.056700
     40 H17          3.3080     1.3750     6.3480 ho         1 A3J       0.412000
     41 C2           2.2140     0.0010    -1.2310 c3         1 A3J       0.143800
@<TRIPOS>BOND
     1     1    18 3   
     2     2    11 2   
     3     2    12 1   
     4     2    24 1   
     5     3     6 ar  
     6     3    12 ar  
     7     4     5 ar  
     8     4     8 ar  
     9     4    19 1   
    10     5    12 ar  
    11     5    13 1   
    12     6     8 ar  
    13     6    14 1   
    14     7    20 1   
    15     7    21 1   
    16     7    25 1   
    17     7    26 1   
    18     8    18 1   
    19     9    21 1   
    20     9    27 1   
    21     9    28 1   
    22     9    29 1   
    23    10    30 1   
    24    10    31 1   
    25    10    32 1   
    26    10    41 1   
    27    11    13 1   
    28    11    41 1   
    29    13    35 1   
    30    14    15 1   
    31    14    16 1   
    32    14    17 1   
    33    19    20 1   
    34    19    22 1   
    35    20    36 1   
    36    20    37 1   
    37    21    22 1   
    38    21    23 1   
    39    22    38 1   
    40    22    39 1   
    41    23    40 1   
    42    33    41 1   
    43    34    41 1   
@<TRIPOS>SUBSTRUCTURE
     1 A3J         1 TEMP              0 ****  ****    0 ROOT
