@<TRIPOS>MOLECULE
molecule
   31    33     1     0     0
SMALL
bcc


@<TRIPOS>ATOM
      1 C01          0.0000     0.0000     0.0000 c3         1 A3K      -0.046800
      2 C23          1.5080     0.0000     0.0000 ca         1 A3K      -0.085300
      3 C21          2.1960     0.0000     1.1950 ca         1 A3K      -0.109000
      4 C24          2.1970    -0.0060    -1.1990 ca         1 A3K      -0.118000
      5 C26          3.5810    -0.0080    -1.2060 ca         1 A3K      -0.116000
      6 C28          4.2810    -0.0020    -0.0170 ca         1 A3K      -0.112000
      7 C30          3.5890    -0.0000     1.1950 cp         1 A3K      -0.051000
      8 C31          4.3350     0.0000     2.4750 cp         1 A3K       0.051000
      9 C15          5.3690    -0.9220     2.7140 ca         1 A3K      -0.193100
     10 C19          4.0370     0.9210     3.4790 ca         1 A3K      -0.269300
     11 C18          4.7630     0.8860     4.6660 ca         1 A3K       0.709200
     12 N05          4.4680     1.8020     5.6700 nv         1 A3K      -1.081500
     13 N17          5.7260     0.0010     4.8610 nb         1 A3K      -0.736000
     14 C16          6.0550    -0.8950     3.9370 ca         1 A3K       0.481800
     15 N13          7.0010    -1.8930     3.8980 na         1 A3K      -0.268100
     16 C10          6.9480    -2.5530     2.7100 cc         1 A3K      -0.048100
     17 C12          5.9700    -2.0140     1.9300 cc         1 A3K      -0.056900
     18 C09          5.5990    -2.4260     0.6090 cg         1 A3K       0.238500
     19 N08          5.3010    -2.7710    -0.4310 n1         1 A3K      -0.377800
     20 H1          -0.3610    -0.3870     0.9450 hc         1 A3K       0.043033
     21 H2          -0.3610    -0.6250    -0.8080 hc         1 A3K       0.043033
     22 H3          -0.3610     1.0120    -0.1380 hc         1 A3K       0.043033
     23 H4           1.6530    -0.0000     2.1330 ha         1 A3K       0.134000
     24 H5           1.6540    -0.0110    -2.1360 ha         1 A3K       0.131000
     25 H6           4.1180    -0.0130    -2.1470 ha         1 A3K       0.136000
     26 H7           5.3640    -0.0040    -0.0260 ha         1 A3K       0.139000
     27 H8           3.2860     1.6830     3.3090 ha         1 A3K       0.153000
     28 H9           3.7550     1.5970     6.3410 hn         1 A3K       0.437800
     29 H10          4.9560     2.6750     5.7090 hn         1 A3K       0.437800
     30 H11          7.6470    -2.1200     4.6290 hn         1 A3K       0.311700
     31 H12          7.5810    -3.3800     2.4130 h4         1 A3K       0.182000
@<TRIPOS>BOND
     1     1     2 1
     2     2     4 ar
     3     2     3 ar
     4     4     5 ar
     5     3     7 ar
     6    19    18 3
     7     5     6 ar
     8    18    17 1
     9     7     6 ar
    10     7     8 1
    11    17     9 1
    12    17    16 2
    13     8     9 ar
    14     8    10 ar
    15     9    14 ar
    16    16    15 1
    17    10    11 ar
    18    15    14 1
    19    14    13 ar
    20    11    13 ar
    21    11    12 1
    22     1    20 1
    23     1    21 1
    24     1    22 1
    25     3    23 1
    26     4    24 1
    27     5    25 1
    28     6    26 1
    29    10    27 1
    30    12    28 1
    31    12    29 1
    32    15    30 1
    33    16    31 1
@<TRIPOS>SUBSTRUCTURE
     1 A3K         1 TEMP              0 ****  ****    0 ROOT
