@<TRIPOS>MOLECULE
A3K
   31    33     1     0     0
SMALL
bcc


@<TRIPOS>ATOM
      1 C01          0.0000     0.0000     0.0000 c3         1 A3K       0.064200
      2 C23          1.5080     0.0000     0.0000 ca         1 A3K      -0.090300
      3 C21          2.1960     0.0000     1.1950 ca         1 A3K      -0.088000
      4 C24          2.1970    -0.0060    -1.1990 ca         1 A3K      -0.093000
      5 C26          3.5810    -0.0080    -1.2060 ca         1 A3K      -0.083000
      6 C28          4.2810    -0.0020    -0.0170 ca         1 A3K      -0.096000
      7 C30          3.5890    -0.0000     1.1950 cp         1 A3K      -0.050000
      8 C31          4.3350     0.0000     2.4750 cp         1 A3K       0.063000
      9 C15          5.3690    -0.9220     2.7140 ca         1 A3K      -0.189100
     10 C19          4.0370     0.9210     3.4790 ca         1 A3K      -0.240300
     11 C18          4.7630     0.8860     4.6660 ca         1 A3K       0.514200
     12 N05          4.4680     1.8020     5.6700 nv         1 A3K      -0.658500
     13 N17          5.7260     0.0010     4.8610 nb         1 A3K      -0.584000
     14 C16          6.0550    -0.8950     3.9370 ca         1 A3K       0.235800
     15 N13          7.0010    -1.8930     3.8980 na         1 A3K       0.282900
     16 C10          6.9480    -2.5530     2.7100 cc         1 A3K      -0.231100
     17 C12          5.9700    -2.0140     1.9300 cd         1 A3K      -0.004900
     18 C09          5.5990    -2.4260     0.6090 ch         1 A3K       0.242500
     19 N08          5.3010    -2.7710    -0.4310 n1         1 A3K      -0.406800
     20 H1          -0.3610    -0.3870     0.9450 hc         1 A3K       0.007033
     21 H2          -0.3610    -0.6250    -0.8080 hc         1 A3K       0.007033
     22 H3          -0.3610     1.0120    -0.1380 hc         1 A3K       0.007033
     23 H4           1.6530    -0.0000     2.1330 ha         1 A3K       0.110000
     24 H5           1.6540    -0.0110    -2.1360 ha         1 A3K       0.105000
     25 H6           4.1180    -0.0130    -2.1470 ha         1 A3K       0.107000
     26 H7           5.3640    -0.0040    -0.0260 ha         1 A3K       0.114000
     27 H8           3.2860     1.6830     3.3090 ha         1 A3K       0.128000
     28 H9           3.7550     1.5970     6.3410 hn         1 A3K       0.276800
     29 H10          4.9560     2.6750     5.7090 hn         1 A3K       0.276800
     30 H11          7.6470    -2.1200     4.6290 hn         1 A3K       0.121700
     31 H12          7.5810    -3.3800     2.4130 h4         1 A3K       0.151000
@<TRIPOS>BOND
     1     1     2 1   
     2     1    20 1   
     3     1    21 1   
     4     1    22 1   
     5     2     3 ar  
     6     2     4 ar  
     7     3     7 ar  
     8     3    23 1   
     9     4     5 ar  
    10     4    24 1   
    11     5     6 ar  
    12     5    25 1   
    13     6     7 ar  
    14     6    26 1   
    15     7     8 1   
    16     8     9 ar  
    17     8    10 ar  
    18     9    14 ar  
    19     9    17 1   
    20    10    11 ar  
    21    10    27 1   
    22    11    12 1   
    23    11    13 ar  
    24    12    28 1   
    25    12    29 1   
    26    13    14 ar  
    27    14    15 1   
    28    15    16 1   
    29    15    30 1   
    30    16    17 2   
    31    16    31 1   
    32    17    18 1   
    33    18    19 3   
@<TRIPOS>SUBSTRUCTURE
     1 A3K         1 TEMP              0 ****  ****    0 ROOT
