@<TRIPOS>MOLECULE
molecule
   31    31     1     0     0
SMALL
bcc


@<TRIPOS>ATOM
      1 C1           0.0000     0.0000     0.0000 c3         1 A3M      -0.091900
      2 C2           1.5430     0.0000     0.0000 c3         1 A3M       0.086000
      3 N3           1.9790     0.0000     1.4030 n          1 A3M      -0.460800
      4 C4           0.7880    -0.0320     2.2690 c3         1 A3M       0.086000
      5 C5          -0.3470     0.5710     1.4000 c3         1 A3M      -0.091900
      6 C14          3.2580     0.0190     1.8270 c          1 A3M       0.652100
      7 C15          3.5630     0.0150     3.3030 c3         1 A3M       0.029500
      8 C16          3.6410     1.4560     3.8100 c3         1 A3M      -0.097700
      9 C17          3.9510     1.4540     5.3090 c3         1 A3M      -0.110600
     10 O18          4.1640     0.0380     1.0210 o          1 A3M      -0.597100
     11 N19          4.8480    -0.6570     3.5360 nz         1 A3M      -0.797600
     12 C26          4.7500     2.2000     3.0630 c3         1 A3M      -0.110600
     13 HC11        -0.3820    -1.0080    -0.1060 hc         1 A3M       0.073950
     14 HC12        -0.3820     0.6470    -0.7810 hc         1 A3M       0.073950
     15 HC21         1.9100     0.8890    -0.4990 h1         1 A3M       0.060700
     16 HC22         1.9110    -0.8880    -0.4990 h1         1 A3M       0.060700
     17 HC41         0.9480     0.5760     3.1520 h1         1 A3M       0.060700
     18 HC42         0.5490    -1.0520     2.5430 h1         1 A3M       0.060700
     19 HC51        -0.2990     1.6530     1.3980 hc         1 A3M       0.073950
     20 HC52        -1.3160     0.2180     1.7320 hc         1 A3M       0.073950
     21 H15          2.7780    -0.5120     3.8320 hx         1 A3M       0.116700
     22 H16          2.6940     1.9520     3.6380 hc         1 A3M       0.108700
     23 H171         3.4160     0.6420     5.7870 hc         1 A3M       0.058367
     24 H172         3.6400     2.3960     5.7430 hc         1 A3M       0.058367
     25 H173         5.0150     1.3210     5.4580 hc         1 A3M       0.058367
     26 H191         5.5650    -0.1970     3.0120 hn         1 A3M       0.463133
     27 H192         5.0710    -0.6200     4.5110 hn         1 A3M       0.463133
     28 H261         4.5560     2.1630     1.9980 hc         1 A3M       0.058367
     29 H262         5.7040     1.7330     3.2740 hc         1 A3M       0.058367
     30 H263         4.7740     3.2330     3.3900 hc         1 A3M       0.058367
     31 H193         4.7850    -1.6100     3.2360 hn         1 A3M       0.463133
@<TRIPOS>BOND
     1     1     2 1
     2     1     5 1
     3     1    13 1
     4     1    14 1
     5     2     3 1
     6     2    15 1
     7     2    16 1
     8     3     4 1
     9     3     6 1
    10     4     5 1
    11     4    17 1
    12     4    18 1
    13     5    19 1
    14     5    20 1
    15     6     7 1
    16     6    10 2
    17     7     8 1
    18     7    11 1
    19     7    21 1
    20     8     9 1
    21     8    12 1
    22     8    22 1
    23     9    23 1
    24     9    24 1
    25     9    25 1
    26    11    26 1
    27    11    27 1
    28    12    28 1
    29    12    29 1
    30    12    30 1
    31    31    11 1
@<TRIPOS>SUBSTRUCTURE
     1 A3M         1 TEMP              0 ****  ****    0 ROOT
