@<TRIPOS>MOLECULE
A3N
   38    40     1     0     0
SMALL
bcc


@<TRIPOS>ATOM
      1 C13         -0.8980     0.0110    -2.4890 c1         1 A3N      -0.102500
      2 C12         -0.4910     0.0000    -1.3880 c1         1 A3N      -0.173100
      3 C11          0.0000     0.0000     0.0000 c3         1 A3N       0.278900
      4 N5           1.4680     0.0000     0.0000 n7         1 A3N      -0.581200
      5 C10          1.9950     0.0000     1.3720 c3         1 A3N       0.138800
      6 C9           3.5250     0.0010     1.3320 c3         1 A3N       0.159100
      7 O1           3.9980     1.2410     0.7790 os         1 A3N      -0.405600
      8 C8           4.0870    -0.1080     2.7620 c3         1 A3N       0.127100
      9 O2           4.8860    -1.2850     2.8970 oh         1 A3N      -0.547800
     10 C7           4.9560     1.1630     2.9250 c3         1 A3N       0.127100
     11 O3           6.1730     0.8640     3.6120 oh         1 A3N      -0.534800
     12 C6           5.2350     1.5570     1.4520 c3         1 A3N       0.159800
     13 N3           5.5290     2.9890     1.3470 na         1 A3N       0.206000
     14 C5           4.6360     3.9750     1.0500 cc         1 A3N       0.245700
     15 N4           5.2360     5.1300     1.0410 nd         1 A3N      -0.497100
     16 C2           6.5470     4.9580     1.3320 ca         1 A3N      -0.246200
     17 C3           6.7500     3.5840     1.5380 ca         1 A3N       0.277800
     18 N2           7.9680     3.1480     1.8410 nb         1 A3N      -0.670000
     19 C4           8.9750     3.9900     1.9480 ca         1 A3N       0.689900
     20 N1           8.8330     5.2910     1.7630 nb         1 A3N      -0.746000
     21 C1           7.6510     5.8180     1.4610 ca         1 A3N       0.591200
     22 N6           7.5120     7.1820     1.2740 nv         1 A3N      -0.482500
     23 H1          -1.0590     0.1680    -3.5490 ha         1 A3N       0.139500
     24 H2          -0.3610    -0.8850     0.5100 h1         1 A3N       0.009700
     25 H3          -0.3610     0.8840     0.5110 h1         1 A3N       0.009700
     26 H4           1.8020     0.8090    -0.4860 hn         1 A3N       0.270800
     27 H6           1.6470     0.8840     1.8920 h1         1 A3N       0.012200
     28 H7           1.6490    -0.8850     1.8910 h1         1 A3N       0.012200
     29 H8           3.8830    -0.8270     0.7330 h1         1 A3N       0.058700
     30 H9           3.2790    -0.1060     3.4840 h1         1 A3N       0.012700
     31 H10          4.5120    -1.8450     3.5570 ho         1 A3N       0.390000
     32 H11          4.4010     1.9440     3.4320 h1         1 A3N       0.020700
     33 H12          6.0800     1.0790     4.5250 ho         1 A3N       0.389000
     34 H13          6.0480     0.9650     1.0490 h2         1 A3N       0.073700
     35 H14          3.5830     3.8200     0.8500 h5         1 A3N       0.037800
     36 H15          9.9560     3.6020     2.1930 h5         1 A3N      -0.004900
     37 H16          8.3080     7.7830     1.3630 hn         1 A3N       0.276300
     38 H17          6.6160     7.5680     1.0520 hn         1 A3N       0.276300
@<TRIPOS>BOND
     1     1     2 3   
     2     1    23 1   
     3     2     3 1   
     4     3     4 1   
     5     3    24 1   
     6     3    25 1   
     7     4     5 1   
     8     4    26 1   
     9     5     6 1   
    10     5    27 1   
    11     5    28 1   
    12     6     7 1   
    13     6     8 1   
    14     6    29 1   
    15     7    12 1   
    16     8     9 1   
    17     8    10 1   
    18     8    30 1   
    19     9    31 1   
    20    10    11 1   
    21    10    12 1   
    22    10    32 1   
    23    11    33 1   
    24    12    13 1   
    25    12    34 1   
    26    13    14 1   
    27    13    17 1   
    28    14    15 2   
    29    14    35 1   
    30    15    16 1   
    31    16    17 ar  
    32    16    21 ar  
    33    17    18 ar  
    34    18    19 ar  
    35    19    20 ar  
    36    19    36 1   
    37    20    21 ar  
    38    21    22 1   
    39    22    37 1   
    40    22    38 1   
@<TRIPOS>SUBSTRUCTURE
     1 A3N         1 TEMP              0 ****  ****    0 ROOT
