@<TRIPOS>MOLECULE
molecule
   38    40     1     0     0
SMALL
bcc


@<TRIPOS>ATOM
      1 C13         -0.8980     0.0110    -2.4890 c1         1 A3N      -0.133500
      2 C12         -0.4910     0.0000    -1.3880 c1         1 A3N      -0.150100
      3 C11          0.0000     0.0000     0.0000 c3         1 A3N       0.244900
      4 N5           1.4680     0.0000     0.0000 n7         1 A3N      -0.810200
      5 C10          1.9950     0.0000     1.3720 c3         1 A3N       0.158800
      6 C9           3.5250     0.0010     1.3320 c3         1 A3N       0.123100
      7 O1           3.9980     1.2410     0.7790 os         1 A3N      -0.422600
      8 C8           4.0870    -0.1080     2.7620 c3         1 A3N       0.086100
      9 O2           4.8860    -1.2850     2.8970 oh         1 A3N      -0.568800
     10 C7           4.9560     1.1630     2.9250 c3         1 A3N       0.093100
     11 O3           6.1730     0.8640     3.6120 oh         1 A3N      -0.554800
     12 C6           5.2350     1.5570     1.4520 c3         1 A3N       0.266800
     13 N3           5.5290     2.9890     1.3470 na         1 A3N      -0.253000
     14 C5           4.6360     3.9750     1.0500 cc         1 A3N       0.424700
     15 N4           5.2360     5.1300     1.0410 nd         1 A3N      -0.588100
     16 C2           6.5470     4.9580     1.3320 ca         1 A3N      -0.214200
     17 C3           6.7500     3.5840     1.5380 ca         1 A3N       0.482800
     18 N2           7.9680     3.1480     1.8410 nb         1 A3N      -0.782000
     19 C4           8.9750     3.9900     1.9480 ca         1 A3N       0.740900
     20 N1           8.8330     5.2910     1.7630 nb         1 A3N      -0.837000
     21 C1           7.6510     5.8180     1.4610 ca         1 A3N       0.787200
     22 N6           7.5120     7.1820     1.2740 nv         1 A3N      -0.984500
     23 H1          -1.0590     0.1680    -3.5490 ha         1 A3N       0.167500
     24 H2          -0.3610    -0.8850     0.5100 h1         1 A3N       0.046200
     25 H3          -0.3610     0.8840     0.5110 h1         1 A3N       0.046200
     26 H4           1.8020     0.8090    -0.4860 hn         1 A3N       0.374800
     27 H6           1.6470     0.8840     1.8920 h1         1 A3N       0.039700
     28 H7           1.6490    -0.8850     1.8910 h1         1 A3N       0.039700
     29 H8           3.8830    -0.8270     0.7330 h1         1 A3N       0.096700
     30 H9           3.2790    -0.1060     3.4840 h1         1 A3N       0.046700
     31 H10          4.5120    -1.8450     3.5570 ho         1 A3N       0.406000
     32 H11          4.4010     1.9440     3.4320 h1         1 A3N       0.057700
     33 H12          6.0800     1.0790     4.5250 ho         1 A3N       0.405000
     34 H13          6.0480     0.9650     1.0490 h2         1 A3N       0.116700
     35 H14          3.5830     3.8200     0.8500 h5         1 A3N       0.084800
     36 H15          9.9560     3.6020     2.1930 h5         1 A3N       0.062100
     37 H16          8.3080     7.7830     1.3630 hn         1 A3N       0.449800
     38 H17          6.6160     7.5680     1.0520 hn         1 A3N       0.449800
@<TRIPOS>BOND
     1    22    21 1
     2    15    16 1
     3    15    14 2
     4    21    16 ar
     5    21    20 ar
     6    16    17 ar
     7    14    13 1
     8    10    11 1
     9    10     8 1
    10    10    12 1
    11    20    19 ar
    12     9     8 1
    13     8     6 1
    14    17    13 1
    15    17    18 ar
    16    13    12 1
    17    19    18 ar
    18    12     7 1
    19     6     7 1
    20     6     5 1
    21     5     4 1
    22     4     3 1
    23     3     2 1
    24     2     1 3
    25     1    23 1
    26     3    24 1
    27     3    25 1
    28     4    26 1
    29     5    27 1
    30     5    28 1
    31     6    29 1
    32     8    30 1
    33     9    31 1
    34    10    32 1
    35    11    33 1
    36    12    34 1
    37    14    35 1
    38    19    36 1
    39    22    37 1
    40    22    38 1
@<TRIPOS>SUBSTRUCTURE
     1 A3N         1 TEMP              0 ****  ****    0 ROOT
