@<TRIPOS>MOLECULE
A3Q
   27    29     1     0     0
SMALL
bcc


@<TRIPOS>ATOM
      1 C1           0.0000     0.0000     0.0000 ca         1 A3Q      -0.066000
      2 C2           1.3800     0.0000     0.0000 ca         1 A3Q      -0.105000
      3 C3           2.0770     0.0000     1.2080 cp         1 A3Q      -0.034000
      4 C4           1.3740    -0.0010     2.4120 ca         1 A3Q      -0.128000
      5 C5          -0.0110    -0.0000     2.4010 ca         1 A3Q       0.124100
      6 C6          -0.6960     0.0050     1.1940 ca         1 A3Q      -0.128000
      7 C7           3.5590    -0.0000     1.2130 cp         1 A3Q       0.057000
      8 C8           4.2780     0.9110     1.9870 ca         1 A3Q      -0.233300
      9 C9           5.6600     0.8750     1.9620 ca         1 A3Q       0.422200
     10 N10          6.3150     0.0030     1.2240 nb         1 A3Q      -0.576000
     11 C11          4.2850    -0.9220     0.4420 ca         1 A3Q      -0.183100
     12 C12          5.6890    -0.8890     0.4670 ca         1 A3Q       0.227800
     13 N13          6.1360    -1.8890    -0.3690 na         1 A3Q       0.286900
     14 C14          5.0870    -2.5520    -0.9210 cc         1 A3Q      -0.227100
     15 C15          3.9170    -2.0130    -0.4740 cd         1 A3Q      -0.009900
     16 C16          2.5930    -2.4300    -0.8220 ch         1 A3Q       0.242500
     17 N17          1.5400    -2.7720    -1.0810 n1         1 A3Q      -0.407800
     18 O18         -0.6990     0.0040     3.5730 oh         1 A3Q      -0.502100
     19 H1          -0.5420     0.0000    -0.9380 ha         1 A3Q       0.109000
     20 H2           1.9210    -0.0040    -0.9380 ha         1 A3Q       0.116000
     21 H3           1.9120    -0.0010     3.3530 ha         1 A3Q       0.118000
     22 H4          -1.7790     0.0050     1.1900 ha         1 A3Q       0.114000
     23 H5           3.7530     1.6280     2.6070 ha         1 A3Q       0.125000
     24 H6           6.2310     1.5760     2.5580 h4         1 A3Q      -0.018900
     25 H7           7.0930    -2.1190    -0.5500 hn         1 A3Q       0.122700
     26 H8           5.1520    -3.3790    -1.6170 h4         1 A3Q       0.151000
     27 H9          -0.8300    -0.8830     3.8640 ho         1 A3Q       0.404000
@<TRIPOS>BOND
     1     1     2 ar  
     2     1     6 ar  
     3     1    19 1   
     4     2     3 ar  
     5     2    20 1   
     6     3     4 ar  
     7     3     7 1   
     8     4     5 ar  
     9     4    21 1   
    10     5     6 ar  
    11     5    18 1   
    12     6    22 1   
    13     7     8 ar  
    14     7    11 ar  
    15     8     9 ar  
    16     8    23 1   
    17     9    10 ar  
    18     9    24 1   
    19    10    12 ar  
    20    11    12 ar  
    21    11    15 1   
    22    12    13 1   
    23    13    14 1   
    24    13    25 1   
    25    14    15 2   
    26    14    26 1   
    27    15    16 1   
    28    16    17 3   
    29    18    27 1   
@<TRIPOS>SUBSTRUCTURE
     1 A3Q         1 TEMP              0 ****  ****    0 ROOT
