@<TRIPOS>MOLECULE
molecule
   56    59     1     0     0
SMALL
bcc


@<TRIPOS>ATOM
      1 C3N          0.0000     0.0000     0.0000 c3         1 A3R      -0.091400
      2 C2N          1.5430     0.0000     0.0000 c3         1 A3R       0.133100
      3 O2N          2.0390     1.1730    -0.6470 oh         1 A3R      -0.614800
      4 C1N          1.9440     0.0000     1.4910 c3         1 A3R       0.161800
      5 N4N          0.7710    -0.5810     2.1940 n7         1 A3R      -0.860200
      6 C4N         -0.4010    -0.0010     1.4910 c3         1 A3R       0.173500
      7 C5N         -1.6400    -0.8710     1.7100 c3         1 A3R       0.238400
      8 O5N         -2.0160    -0.8270     3.0880 os         1 A3R      -0.616200
      9 PB          -3.2800    -1.6290     3.6780 p5         1 A3R       1.432800
     10 O2B         -3.0210    -3.2130     3.5450 o          1 A3R      -0.834000
     11 O1B         -4.4960    -1.2640     2.9170 o          1 A3R      -0.834000
     12 O3A         -3.4830    -1.2470     5.2290 os         1 A3R      -0.717800
     13 PA          -4.6860    -1.4410     6.2810 p5         1 A3R       1.429800
     14 O1A         -5.9780    -1.1820     5.6060 o          1 A3R      -0.831500
     15 O2A         -4.6680    -2.9490     6.8460 o          1 A3R      -0.831500
     16 O5'         -4.5030    -0.4090     7.5030 os         1 A3R      -0.598200
     17 C5'         -5.4640    -0.2610     8.5490 c3         1 A3R       0.242400
     18 C4'         -4.9800     0.7980     9.5410 c3         1 A3R       0.118100
     19 O4'         -5.0240     2.1090     8.9380 os         1 A3R      -0.379600
     20 C3'         -5.9430     0.8850    10.7460 c3         1 A3R       0.070100
     21 O3'         -5.4320     0.1360    11.8510 oh         1 A3R      -0.598800
     22 C2'         -5.9850     2.3920    11.0850 c3         1 A3R       0.086100
     23 O2'         -5.5030     2.6200    12.4110 oh         1 A3R      -0.588800
     24 C1'         -5.0430     3.0370    10.0450 c3         1 A3R       0.216800
     25 N9          -5.5700     4.3340     9.6150 na         1 A3R      -0.237000
     26 C8          -6.3380     4.5670     8.5140 cc         1 A3R       0.461700
     27 N7          -6.6280     5.8350     8.4340 nd         1 A3R      -0.614100
     28 C5          -6.0660     6.4920     9.4760 ca         1 A3R      -0.203200
     29 C4          -5.3850     5.5370    10.2500 ca         1 A3R       0.469800
     30 N3          -4.7410     5.9310    11.3430 nb         1 A3R      -0.775000
     31 C2          -4.7400     7.1980    11.7010 ca         1 A3R       0.717900
     32 N1          -5.3650     8.1320    11.0060 nb         1 A3R      -0.850000
     33 C6          -6.0420     7.8300     9.9040 ca         1 A3R       0.776200
     34 N6          -6.6940     8.8150     9.1820 nv         1 A3R      -0.996500
     35 H1          -0.3750    -0.8910    -0.4900 hc         1 A3R       0.051700
     36 H2          -0.3750     0.8910    -0.4880 hc         1 A3R       0.051700
     37 H3           1.9170    -0.8920    -0.4880 h1         1 A3R       0.030700
     38 H4           2.6300     0.9250    -1.3380 ho         1 A3R       0.383000
     39 H5           2.8200    -0.6180     1.6460 h1         1 A3R       0.025200
     40 H6           2.1230     1.0120     1.8330 h1         1 A3R       0.025200
     41 H7           0.7290    -0.5510     3.1940 hn         1 A3R       0.410800
     42 H9          -0.5790     1.0120     1.8320 h1         1 A3R       0.031700
     43 H10         -1.4180    -1.8930     1.4280 h1         1 A3R       0.033200
     44 H11         -2.4550    -0.4980     1.1010 h1         1 A3R       0.033200
     45 H14         -6.4130     0.0470     8.1260 h1         1 A3R       0.039200
     46 H15         -5.5880    -1.2070     9.0620 h1         1 A3R       0.039200
     47 H16         -3.9760     0.5750     9.8800 h1         1 A3R       0.077700
     48 H17         -6.9290     0.5340    10.4660 h1         1 A3R       0.062700
     49 H18         -6.0980    -0.4500    12.1690 ho         1 A3R       0.409000
     50 H19         -6.9920     2.7750    10.9710 h1         1 A3R       0.091700
     51 H20         -4.6530     2.2240    12.5090 ho         1 A3R       0.416000
     52 H21         -4.0480     3.1470    10.4580 h2         1 A3R       0.085700
     53 H22         -6.6600     3.8100     7.8090 h5         1 A3R       0.110800
     54 H23         -4.1990     7.4870    12.5950 h5         1 A3R       0.049100
     55 H24         -7.1970     8.5760     8.3500 hn         1 A3R       0.442800
     56 H25         -6.6670     9.7660     9.4940 hn         1 A3R       0.442800
@<TRIPOS>BOND
     1    32    31 ar
     2    32    33 ar
     3    31    30 ar
     4    34    33 1
     5    33    28 ar
     6    30    29 ar
     7    28    29 ar
     8    28    27 1
     9    29    25 1
    10    27    26 2
    11    25    24 1
    12    25    26 1
    13    23    22 1
    14    24    22 1
    15    24    19 1
    16    22    20 1
    17    19    18 1
    18    18    20 1
    19    18    17 1
    20    20    21 1
    21    17    16 1
    22    16    13 1
    23    11     9 1
    24    13    14 1
    25    13    15 1
    26    13    12 1
    27     5     4 1
    28     5     6 1
    29     7     6 1
    30     7     8 1
    31    12     9 1
    32     9     8 1
    33     9    10 1
    34     4     2 1
    35     6     1 1
    36     1     2 1
    37     2     3 1
    38     1    35 1
    39     1    36 1
    40     2    37 1
    41     3    38 1
    42     4    39 1
    43     4    40 1
    44     5    41 1
    45     6    42 1
    46     7    43 1
    47     7    44 1
    48    17    45 1
    49    17    46 1
    50    18    47 1
    51    20    48 1
    52    21    49 1
    53    22    50 1
    54    23    51 1
    55    24    52 1
    56    26    53 1
    57    31    54 1
    58    34    55 1
    59    34    56 1
@<TRIPOS>SUBSTRUCTURE
     1 A3R         1 TEMP              0 ****  ****    0 ROOT
