@<TRIPOS>MOLECULE
A3R
   56    59     1     0     0
SMALL
bcc


@<TRIPOS>ATOM
      1 C3N          0.0000     0.0000     0.0000 c3         1 A3R      -0.045400
      2 C2N          1.5430     0.0000     0.0000 c3         1 A3R       0.181100
      3 O2N          2.0390     1.1730    -0.6470 oh         1 A3R      -0.594800
      4 C1N          1.9440     0.0000     1.4910 c3         1 A3R       0.133800
      5 N4N          0.7710    -0.5810     2.1940 n7         1 A3R      -0.596200
      6 C4N         -0.4010    -0.0010     1.4910 c3         1 A3R       0.106500
      7 C5N         -1.6400    -0.8710     1.7100 c3         1 A3R       0.315400
      8 O5N         -2.0160    -0.8270     3.0880 os         1 A3R      -0.515200
      9 PB          -3.2800    -1.6290     3.6780 p5         1 A3R       0.949800
     10 O2B         -3.0210    -3.2130     3.5450 o          1 A3R      -0.670500
     11 O1B         -4.4960    -1.2640     2.9170 o          1 A3R      -0.670500
     12 O3A         -3.4830    -1.2470     5.2290 os         1 A3R      -0.490800
     13 PA          -4.6860    -1.4410     6.2810 p5         1 A3R       0.947800
     14 O1A         -5.9780    -1.1820     5.6060 o          1 A3R      -0.670000
     15 O2A         -4.6680    -2.9490     6.8460 o          1 A3R      -0.670000
     16 O5'         -4.5030    -0.4090     7.5030 os         1 A3R      -0.501200
     17 C5'         -5.4640    -0.2610     8.5490 c3         1 A3R       0.313400
     18 C4'         -4.9800     0.7980     9.5410 c3         1 A3R       0.142100
     19 O4'         -5.0240     2.1090     8.9380 os         1 A3R      -0.360600
     20 C3'         -5.9430     0.8850    10.7460 c3         1 A3R       0.113100
     21 O3'         -5.4320     0.1360    11.8510 oh         1 A3R      -0.579800
     22 C2'         -5.9850     2.3920    11.0850 c3         1 A3R       0.123100
     23 O2'         -5.5030     2.6200    12.4110 oh         1 A3R      -0.580800
     24 C1'         -5.0430     3.0370    10.0450 c3         1 A3R       0.103800
     25 N9          -5.5700     4.3340     9.6150 na         1 A3R       0.235000
     26 C8          -6.3380     4.5670     8.5140 cc         1 A3R       0.286700
     27 N7          -6.6280     5.8350     8.4340 nd         1 A3R      -0.530100
     28 C5          -6.0660     6.4920     9.4760 ca         1 A3R      -0.234200
     29 C4          -5.3850     5.5370    10.2500 ca         1 A3R       0.258800
     30 N3          -4.7410     5.9310    11.3430 nb         1 A3R      -0.656000
     31 C2          -4.7400     7.1980    11.7010 ca         1 A3R       0.661900
     32 N1          -5.3650     8.1320    11.0060 nb         1 A3R      -0.762000
     33 C6          -6.0420     7.8300     9.9040 ca         1 A3R       0.584200
     34 N6          -6.6940     8.8150     9.1820 nv         1 A3R      -0.505500
     35 H1          -0.3750    -0.8910    -0.4900 hc         1 A3R       0.020200
     36 H2          -0.3750     0.8910    -0.4880 hc         1 A3R       0.020200
     37 H3           1.9170    -0.8920    -0.4880 h1         1 A3R      -0.007300
     38 H4           2.6300     0.9250    -1.3380 ho         1 A3R       0.368000
     39 H5           2.8200    -0.6180     1.6460 h1         1 A3R      -0.004800
     40 H6           2.1230     1.0120     1.8330 h1         1 A3R      -0.004800
     41 H7           0.7290    -0.5510     3.1940 hn         1 A3R       0.295800
     42 H9          -0.5790     1.0120     1.8320 h1         1 A3R       0.006700
     43 H10         -1.4180    -1.8930     1.4280 h1         1 A3R      -0.018300
     44 H11         -2.4550    -0.4980     1.1010 h1         1 A3R      -0.018300
     45 H14         -6.4130     0.0470     8.1260 h1         1 A3R      -0.013800
     46 H15         -5.5880    -1.2070     9.0620 h1         1 A3R      -0.013800
     47 H16         -3.9760     0.5750     9.8800 h1         1 A3R       0.036700
     48 H17         -6.9290     0.5340    10.4660 h1         1 A3R       0.025700
     49 H18         -6.0980    -0.4500    12.1690 ho         1 A3R       0.393000
     50 H19         -6.9920     2.7750    10.9710 h1         1 A3R       0.043700
     51 H20         -4.6530     2.2240    12.5090 ho         1 A3R       0.407000
     52 H21         -4.0480     3.1470    10.4580 h2         1 A3R       0.048700
     53 H22         -6.6600     3.8100     7.8090 h5         1 A3R       0.061800
     54 H23         -4.1990     7.4870    12.5950 h5         1 A3R      -0.015900
     55 H24         -7.1970     8.5760     8.3500 hn         1 A3R       0.270800
     56 H25         -6.6670     9.7660     9.4940 hn         1 A3R       0.270800
@<TRIPOS>BOND
     1     1     2 1   
     2     1     6 1   
     3     1    35 1   
     4     1    36 1   
     5     2     3 1   
     6     2     4 1   
     7     2    37 1   
     8     3    38 1   
     9     4     5 1   
    10     4    39 1   
    11     4    40 1   
    12     5     6 1   
    13     5    41 1   
    14     6     7 1   
    15     6    42 1   
    16     7     8 1   
    17     7    43 1   
    18     7    44 1   
    19     8     9 1   
    20     9    10 1   
    21     9    11 1   
    22     9    12 1   
    23    12    13 1   
    24    13    14 1   
    25    13    15 1   
    26    13    16 1   
    27    16    17 1   
    28    17    18 1   
    29    17    45 1   
    30    17    46 1   
    31    18    19 1   
    32    18    20 1   
    33    18    47 1   
    34    19    24 1   
    35    20    21 1   
    36    20    22 1   
    37    20    48 1   
    38    21    49 1   
    39    22    23 1   
    40    22    24 1   
    41    22    50 1   
    42    23    51 1   
    43    24    25 1   
    44    24    52 1   
    45    25    26 1   
    46    25    29 1   
    47    26    27 2   
    48    26    53 1   
    49    27    28 1   
    50    28    29 ar  
    51    28    33 ar  
    52    29    30 ar  
    53    30    31 ar  
    54    31    32 ar  
    55    31    54 1   
    56    32    33 ar  
    57    33    34 1   
    58    34    55 1   
    59    34    56 1   
@<TRIPOS>SUBSTRUCTURE
     1 A3R         1 TEMP              0 ****  ****    0 ROOT
