@<TRIPOS>MOLECULE
molecule
   45    47     1     0     0
SMALL
bcc


@<TRIPOS>ATOM
      1 O5'          0.0000     0.0000     0.0000 oh         1 A3S      -0.592800
      2 C5'          1.4280     0.0000     0.0000 c3         1 A3S       0.147400
      3 C4'          1.9400     0.0000     1.4420 c3         1 A3S       0.131100
      4 O4'          1.5970    -1.2430     2.0980 os         1 A3S      -0.376600
      5 C1'          2.5070    -1.3510     3.2130 c3         1 A3S       0.256800
      6 N9           2.6090    -2.7430     3.6590 na         1 A3S      -0.270000
      7 C4           3.0480    -3.1730     4.8860 ca         1 A3S       0.440800
      8 N3           3.4760    -2.5740     5.9920 nb         1 A3S      -0.766000
      9 C2           3.8320    -3.2820     7.0430 ca         1 A3S       0.711900
     10 N1           3.7800    -4.6010     7.0600 nb         1 A3S      -0.760000
     11 C6           3.3600    -5.2870     6.0020 ca         1 A3S       0.789200
     12 N6           3.3090    -6.6700     6.0290 nv         1 A3S      -1.072500
     13 C5           2.9680    -4.5760     4.8560 ca         1 A3S      -0.156200
     14 N7           2.5020    -4.9230     3.6320 nc         1 A3S      -0.559100
     15 C8           2.2910    -3.8490     2.9270 cd         1 A3S       0.439700
     16 C2'          3.8650    -0.8630     2.6640 c3         1 A3S       0.089100
     17 O2'          4.5720    -0.1160     3.6580 oh         1 A3S      -0.596800
     18 C3'          3.4830     0.0470     1.4750 c3         1 A3S       0.051700
     19 N8           3.9500     1.4170     1.7030 ns         1 A3S      -0.527900
     20 N            5.2200     4.1840    -0.3420 nz         1 A3S      -0.790600
     21 CA           4.6310     3.6530     0.8950 c3         1 A3S       0.023500
     22 CB           3.4510     4.5310     1.3150 c3         1 A3S       0.122400
     23 OG           3.9230     5.8360     1.6510 oh         1 A3S      -0.621800
     24 C            4.1500     2.2440     0.6590 c          1 A3S       0.635100
     25 O            3.9440     1.8560    -0.4710 o          1 A3S      -0.600100
     26 H5'         -0.3140     0.1140    -0.8820 ho         1 A3S       0.417000
     27 H5'1         1.7890     0.8850    -0.5110 h1         1 A3S       0.039700
     28 H5'2         1.7890    -0.8840    -0.5110 h1         1 A3S       0.039700
     29 H4'          1.5290     0.8380     1.9920 h1         1 A3S       0.069700
     30 H1'          2.1810    -0.7130     4.0250 h2         1 A3S       0.107700
     31 H2           4.1810    -2.7630     7.9270 h5         1 A3S       0.067100
     32 HN61         2.4710    -7.1340     6.3200 hn         1 A3S       0.451300
     33 HN62         4.1070    -7.2060     5.7500 hn         1 A3S       0.451300
     34 H8           1.9170    -3.8360     1.9110 h5         1 A3S       0.092800
     35 H2'          4.4570    -1.7020     2.3200 h1         1 A3S       0.083700
     36 H1           5.4740    -0.3900     3.6750 ho         1 A3S       0.427000
     37 H3'          3.8910    -0.3490     0.5520 h1         1 A3S       0.104700
     38 HN8          4.1130     1.7400     2.6360 hn         1 A3S       0.352500
     39 HA           5.3780     3.6520     1.6800 hx         1 A3S       0.133700
     40 HB1          2.7440     4.6020     0.4970 h1         1 A3S       0.076200
     41 HB2          2.9630     4.0910     2.1770 h1         1 A3S       0.076200
     42 HOG          3.3200     6.2450     2.2490 ho         1 A3S       0.457000
     43 HN1          5.7360     3.4610    -0.8030 hn         1 A3S       0.467467
     44 H21          5.8340     4.9420    -0.1200 hn         1 A3S       0.467467
     45 HN2          4.4910     4.5100    -0.9450 hn         1 A3S       0.467467
@<TRIPOS>BOND
     1     1     2 1
     2     1    26 1
     3     2     3 1
     4     2    27 1
     5     2    28 1
     6     3     4 1
     7     3    18 1
     8     3    29 1
     9     4     5 1
    10     5     6 1
    11     5    16 1
    12     5    30 1
    13     6     7 1
    14     6    15 1
    15     7     8 ar
    16     7    13 ar
    17     8     9 ar
    18     9    10 ar
    19     9    31 1
    20    10    11 ar
    21    11    12 1
    22    11    13 ar
    23    12    32 1
    24    12    33 1
    25    13    14 1
    26    14    15 2
    27    15    34 1
    28    16    17 1
    29    16    18 1
    30    16    35 1
    31    17    36 1
    32    18    19 1
    33    18    37 1
    34    19    24 1
    35    19    38 1
    36    20    21 1
    37    20    43 1
    38    20    45 1
    39    21    22 1
    40    21    24 1
    41    21    39 1
    42    22    23 1
    43    22    40 1
    44    22    41 1
    45    23    42 1
    46    24    25 2
    47    44    20 1
@<TRIPOS>SUBSTRUCTURE
     1 A3S         1 TEMP              0 ****  ****    0 ROOT
