@<TRIPOS>MOLECULE
molecule
   48    50     1     0     0
SMALL
bcc


@<TRIPOS>ATOM
      1 C            0.0000     0.0000     0.0000 c          1 A3T       0.649100
      2 N            1.9970     1.1980    -0.6930 nz         1 A3T      -0.791600
      3 O           -0.6060     1.0350    -0.1820 o          1 A3T      -0.588100
      4 N1          -4.0080    -8.1620     0.2060 nb         1 A3T      -0.767000
      5 C2          -2.8420    -7.5420     0.2120 ca         1 A3T       0.708900
      6 N3          -2.7250    -6.2600     0.4820 nb         1 A3T      -0.762000
      7 C4          -3.7970    -5.5270     0.7670 ca         1 A3T       0.441800
      8 C5          -5.0610    -6.1390     0.7730 ca         1 A3T      -0.154200
      9 C6          -5.1350    -7.5120     0.4770 ca         1 A3T       0.787200
     10 N6          -6.3520    -8.1690     0.4690 nv         1 A3T      -1.071500
     11 N7          -5.9660    -5.1830     1.0880 nc         1 A3T      -0.559100
     12 C8          -5.3540    -4.0490     1.2710 cd         1 A3T       0.440700
     13 N8          -0.6730    -1.1500     0.1980 ns         1 A3T      -0.532900
     14 N9          -4.0130    -4.2100     1.0830 na         1 A3T      -0.267000
     15 CA           1.5070     0.0000     0.0000 c3         1 A3T       0.035500
     16 CB           2.0170     0.0000     1.4430 c3         1 A3T       0.125100
     17 OG           1.4480     1.1040     2.1490 oh         1 A3T      -0.608800
     18 C1'         -2.9910    -3.1660     1.2000 c3         1 A3T       0.259800
     19 C2'         -2.6790    -2.5500    -0.1880 c3         1 A3T       0.087100
     20 O2'         -1.6820    -3.3130    -0.8730 oh         1 A3T      -0.590800
     21 C3'         -2.1390    -1.1510     0.1920 c3         1 A3T       0.052700
     22 C4'         -2.6850    -0.9090     1.6130 c3         1 A3T       0.132100
     23 O4'         -3.4920    -2.0460     1.9600 os         1 A3T      -0.383600
     24 C5'         -3.5380     0.3600     1.6340 c3         1 A3T       0.143400
     25 O5'         -3.9430     0.6410     2.9750 oh         1 A3T      -0.593800
     26 CG2          3.5420     0.1240     1.4450 c3         1 A3T      -0.155100
     27 HN           2.9740     1.0970    -0.8850 hn         1 A3T       0.467467
     28 HNA          1.4990     1.3140    -1.5530 hn         1 A3T       0.467467
     29 HN6         -6.6970    -8.5930     1.3070 hn         1 A3T       0.450800
     30 HN6A        -6.8720    -8.2490    -0.3830 hn         1 A3T       0.450800
     31 H8          -5.8370    -3.1160     1.5340 h5         1 A3T       0.093800
     32 HN8         -0.1740    -2.0120     0.2940 hn         1 A3T       0.346500
     33 HA           1.8680    -0.8850    -0.5100 hx         1 A3T       0.124700
     34 HB           1.7290    -0.9250     1.9270 h1         1 A3T       0.091700
     35 HOG          1.7250     1.0780     3.0500 ho         1 A3T       0.453000
     36 H1'         -2.0880    -3.5570     1.6520 h2         1 A3T       0.096700
     37 H2'         -3.5830    -2.4640    -0.7800 h1         1 A3T       0.086700
     38 HO2'        -1.9120    -3.3840    -1.7840 ho         1 A3T       0.426000
     39 H3'         -2.5220    -0.4010    -0.4910 h1         1 A3T       0.102700
     40 H4'         -1.8610    -0.8170     2.3110 h1         1 A3T       0.074700
     41 H5'         -4.4150     0.2160     1.0140 h1         1 A3T       0.040200
     42 H5'A        -2.9590     1.1920     1.2500 h1         1 A3T       0.040200
     43 HO5'        -4.4180     1.4550     2.9970 ho         1 A3T       0.417000
     44 HG2          3.9320    -0.2310     2.3910 hc         1 A3T       0.065700
     45 HG2A         3.8200     1.1620     1.3070 hc         1 A3T       0.065700
     46 HG2B         3.9540    -0.4700     0.6380 hc         1 A3T       0.065700
     47 HN3          1.8870     1.9960    -0.0990 hn         1 A3T       0.467467
     48 H2          -1.9780    -8.1620     0.0050 h5         1 A3T       0.066100
@<TRIPOS>BOND
     1     1     3 2
     2     1    13 1
     3     1    15 1
     4     2    15 1
     5     4     5 ar
     6     4     9 ar
     7     5     6 ar
     8     6     7 ar
     9     7     8 ar
    10     7    14 1
    11     8     9 ar
    12     8    11 1
    13     9    10 1
    14    11    12 2
    15    12    14 1
    16    13    21 1
    17    14    18 1
    18    15    16 1
    19    16    17 1
    20    16    26 1
    21    18    19 1
    22    18    23 1
    23    19    20 1
    24    19    21 1
    25    21    22 1
    26    22    23 1
    27    22    24 1
    28    24    25 1
    29     2    27 1
    30     2    28 1
    31     5    48 1
    32    10    29 1
    33    10    30 1
    34    12    31 1
    35    13    32 1
    36    15    33 1
    37    16    34 1
    38    17    35 1
    39    18    36 1
    40    19    37 1
    41    20    38 1
    42    21    39 1
    43    22    40 1
    44    24    41 1
    45    24    42 1
    46    25    43 1
    47    26    44 1
    48    26    45 1
    49    26    46 1
    50    47     2 1
@<TRIPOS>SUBSTRUCTURE
     1 A3T         1 TEMP              0 ****  ****    0 ROOT
