@<TRIPOS>MOLECULE
molecule
   45    46     1     0     0
SMALL
bcc


@<TRIPOS>ATOM
      1 O            0.0000     0.0000     0.0000 oh         1 A3V      -0.605800
      2 C2           1.4290     0.0000     0.0000 c3         1 A3V       0.213400
      3 C1           1.9390     0.0000     1.4430 c3         1 A3V      -0.112400
      4 C            1.5340    -1.3080     2.1270 c3         1 A3V       0.088800
      5 N            2.0240    -1.3080     3.5120 nz         1 A3V      -0.810600
      6 C3           1.9320     1.2310    -0.7100 ca         1 A3V      -0.109300
      7 C15          3.0230     1.1430    -1.5530 ca         1 A3V      -0.157000
      8 C7           3.4850     2.2760    -2.2070 ca         1 A3V       0.157100
      9 C6           2.8500     3.4940    -2.0120 ca         1 A3V      -0.200000
     10 C5           1.7590     3.5760    -1.1680 ca         1 A3V      -0.083000
     11 C4           1.2970     2.4440    -0.5220 ca         1 A3V      -0.141000
     12 O1           4.5580     2.1940    -3.0360 os         1 A3V      -0.325900
     13 C8           4.9790     3.4000    -3.6760 c3         1 A3V       0.137400
     14 C9           6.1910     3.1110    -4.5640 c3         1 A3V      -0.068700
     15 C14          6.5640     4.3730    -5.3440 c3         1 A3V      -0.074900
     16 C13          7.7770     4.0850    -6.2310 c3         1 A3V      -0.078400
     17 C12          8.9580     3.6560    -5.3570 c3         1 A3V      -0.081400
     18 C11          8.5850     2.3940    -4.5770 c3         1 A3V      -0.078400
     19 C10          7.3720     2.6830    -3.6900 c3         1 A3V      -0.074900
     20 H1          -0.3140    -0.6300    -0.6270 ho         1 A3V       0.425000
     21 H2           1.7900    -0.8850    -0.5110 h1         1 A3V       0.047700
     22 H3           1.5070     0.8370     1.9790 hc         1 A3V       0.078700
     23 H4           3.0190     0.0890     1.4440 hc         1 A3V       0.078700
     24 H5           1.9650    -2.1440     1.5910 hx         1 A3V       0.115200
     25 H6           0.4540    -1.3960     2.1260 hx         1 A3V       0.115200
     26 H7           3.0210    -1.2190     3.5130 hn         1 A3V       0.457133
     27 H8           1.6200    -0.5380     4.0090 hn         1 A3V       0.457133
     28 H10          3.5170     0.1910    -1.7040 ha         1 A3V       0.139000
     29 H11          3.2100     4.3810    -2.5190 ha         1 A3V       0.150000
     30 H12          1.2620     4.5270    -1.0170 ha         1 A3V       0.145000
     31 H13          0.4420     2.5100     0.1390 ha         1 A3V       0.141000
     32 H14          5.2480     4.1330    -2.9240 h1         1 A3V       0.040200
     33 H15          4.1700     3.7870    -4.2840 h1         1 A3V       0.040200
     34 H16          5.9530     2.3160    -5.2600 hc         1 A3V       0.068700
     35 H17          5.7280     4.6730    -5.9640 hc         1 A3V       0.043950
     36 H18          6.8080     5.1670    -4.6480 hc         1 A3V       0.043950
     37 H19          8.0420     4.9800    -6.7800 hc         1 A3V       0.045700
     38 H20          7.5350     3.2880    -6.9240 hc         1 A3V       0.045700
     39 H21          9.8150     3.4500    -5.9860 hc         1 A3V       0.045700
     40 H22          9.1980     4.4510    -4.6610 hc         1 A3V       0.045700
     41 H23          9.4210     2.0940    -3.9570 hc         1 A3V       0.045700
     42 H24          8.3410     1.6000    -5.2720 hc         1 A3V       0.045700
     43 H25          7.6150     3.4790    -2.9970 hc         1 A3V       0.043950
     44 H26          7.1070     1.7870    -3.1410 hc         1 A3V       0.043950
     45 HN3          1.7580    -2.1620     3.9600 hn         1 A3V       0.457133
@<TRIPOS>BOND
     1    18    19 1
     2    18    17 1
     3    19    14 1
     4    17    16 1
     5     5     4 1
     6    14    13 1
     7    14    15 1
     8     4     3 1
     9    16    15 1
    10    13    12 1
    11     3     2 1
    12     1     2 1
    13    12     8 1
    14     7     8 ar
    15     7     6 ar
    16     2     6 1
    17     8     9 ar
    18     6    11 ar
    19     9    10 ar
    20    11    10 ar
    21     1    20 1
    22     2    21 1
    23     3    22 1
    24     3    23 1
    25     4    24 1
    26     4    25 1
    27     5    26 1
    28     5    27 1
    29     7    28 1
    30     9    29 1
    31    10    30 1
    32    11    31 1
    33    13    32 1
    34    13    33 1
    35    14    34 1
    36    15    35 1
    37    15    36 1
    38    16    37 1
    39    16    38 1
    40    17    39 1
    41    17    40 1
    42    18    41 1
    43    18    42 1
    44    19    43 1
    45    19    44 1
    46    45     5 1
@<TRIPOS>SUBSTRUCTURE
     1 A3V         1 TEMP              0 ****  ****    0 ROOT
