@<TRIPOS>MOLECULE
A3V
   45    46     1     0     0
SMALL
bcc


@<TRIPOS>ATOM
      1 O            0.0000     0.0000     0.0000 oh         1 A3V      -0.588800
      2 C2           1.4290     0.0000     0.0000 c3         1 A3V       0.270400
      3 C1           1.9390     0.0000     1.4430 c3         1 A3V      -0.049400
      4 C            1.5340    -1.3080     2.1270 c3         1 A3V      -0.056200
      5 N            2.0240    -1.3080     3.5120 nz         1 A3V       0.086400
      6 C3           1.9320     1.2310    -0.7100 ca         1 A3V      -0.126300
      7 C15          3.0230     1.1430    -1.5530 ca         1 A3V      -0.137000
      8 C7           3.4850     2.2760    -2.2070 ca         1 A3V       0.167100
      9 C6           2.8500     3.4940    -2.0120 ca         1 A3V      -0.187000
     10 C5           1.7590     3.5760    -1.1680 ca         1 A3V      -0.046000
     11 C4           1.2970     2.4440    -0.5220 ca         1 A3V      -0.119000
     12 O1           4.5580     2.1940    -3.0360 os         1 A3V      -0.301900
     13 C8           4.9790     3.4000    -3.6760 c3         1 A3V       0.202400
     14 C9           6.1910     3.1110    -4.5640 c3         1 A3V      -0.056700
     15 C14          6.5640     4.3730    -5.3440 c3         1 A3V      -0.021400
     16 C13          7.7770     4.0850    -6.2310 c3         1 A3V      -0.021900
     17 C12          8.9580     3.6560    -5.3570 c3         1 A3V      -0.025400
     18 C11          8.5850     2.3940    -4.5770 c3         1 A3V      -0.021900
     19 C10          7.3720     2.6830    -3.6900 c3         1 A3V      -0.021400
     20 H1          -0.3140    -0.6300    -0.6270 ho         1 A3V       0.411000
     21 H2           1.7900    -0.8850    -0.5110 h1         1 A3V       0.010700
     22 H3           1.5070     0.8370     1.9790 hc         1 A3V       0.045200
     23 H4           3.0190     0.0890     1.4440 hc         1 A3V       0.045200
     24 H5           1.9650    -2.1440     1.5910 hx         1 A3V       0.088200
     25 H6           0.4540    -1.3960     2.1260 hx         1 A3V       0.088200
     26 H7           3.0210    -1.2190     3.5130 hn         1 A3V       0.222800
     27 H8           1.6200    -0.5380     4.0090 hn         1 A3V       0.222800
     28 H10          3.5170     0.1910    -1.7040 ha         1 A3V       0.115000
     29 H11          3.2100     4.3810    -2.5190 ha         1 A3V       0.132000
     30 H12          1.2620     4.5270    -1.0170 ha         1 A3V       0.112000
     31 H13          0.4420     2.5100     0.1390 ha         1 A3V       0.116000
     32 H14          5.2480     4.1330    -2.9240 h1         1 A3V       0.006700
     33 H15          4.1700     3.7870    -4.2840 h1         1 A3V       0.006700
     34 H16          5.9530     2.3160    -5.2600 hc         1 A3V       0.042700
     35 H17          5.7280     4.6730    -5.9640 hc         1 A3V       0.016450
     36 H18          6.8080     5.1670    -4.6480 hc         1 A3V       0.016450
     37 H19          8.0420     4.9800    -6.7800 hc         1 A3V       0.016950
     38 H20          7.5350     3.2880    -6.9240 hc         1 A3V       0.016950
     39 H21          9.8150     3.4500    -5.9860 hc         1 A3V       0.016700
     40 H22          9.1980     4.4510    -4.6610 hc         1 A3V       0.016700
     41 H23          9.4210     2.0940    -3.9570 hc         1 A3V       0.016950
     42 H24          8.3410     1.6000    -5.2720 hc         1 A3V       0.016950
     43 H25          7.6150     3.4790    -2.9970 hc         1 A3V       0.016450
     44 H26          7.1070     1.7870    -3.1410 hc         1 A3V       0.016450
     45 HN3          1.7580    -2.1620     3.9600 hn         1 A3V       0.222800
@<TRIPOS>BOND
     1     1     2 1   
     2     1    20 1   
     3     2     3 1   
     4     2     6 1   
     5     2    21 1   
     6     3     4 1   
     7     3    22 1   
     8     3    23 1   
     9     4     5 1   
    10     4    24 1   
    11     4    25 1   
    12     5    26 1   
    13     5    27 1   
    14     5    45 1   
    15     6     7 ar  
    16     6    11 ar  
    17     7     8 ar  
    18     7    28 1   
    19     8     9 ar  
    20     8    12 1   
    21     9    10 ar  
    22     9    29 1   
    23    10    11 ar  
    24    10    30 1   
    25    11    31 1   
    26    12    13 1   
    27    13    14 1   
    28    13    32 1   
    29    13    33 1   
    30    14    15 1   
    31    14    19 1   
    32    14    34 1   
    33    15    16 1   
    34    15    35 1   
    35    15    36 1   
    36    16    17 1   
    37    16    37 1   
    38    16    38 1   
    39    17    18 1   
    40    17    39 1   
    41    17    40 1   
    42    18    19 1   
    43    18    41 1   
    44    18    42 1   
    45    19    43 1   
    46    19    44 1   
@<TRIPOS>SUBSTRUCTURE
     1 A3V         1 TEMP              0 ****  ****    0 ROOT
