@<TRIPOS>MOLECULE
molecule
   49    52     1     0     0
SMALL
bcc


@<TRIPOS>ATOM
      1 CAD          0.0000     0.0000     0.0000 c3         1 A3W       0.131050
      2 CAA          1.5310     0.0000     0.0000 c3         1 A3W       0.134400
      3 OAB          2.0030     0.0000     1.3510 os         1 A3W      -0.424100
      4 CAC          1.5500     1.1190     2.1180 c3         1 A3W       0.134400
      5 CAF          0.0190     1.1310     2.1400 c3         1 A3W       0.131050
      6 NAE         -0.4840     1.1630     0.7590 nh         1 A3W      -0.675300
      7 CAM         -1.8630     1.2280     0.7370 ca         1 A3W       0.931400
      8 NAR         -2.5610     0.3060     0.0830 nb         1 A3W      -0.851500
      9 NAL         -2.4920     2.2110     1.3740 nb         1 A3W      -0.823000
     10 CAK         -3.8190     2.2740     1.3530 ca         1 A3W       0.931400
     11 NAJ         -4.4720     3.2960     2.0150 nh         1 A3W      -0.675300
     12 CAI         -5.9280     3.1740     1.8630 c3         1 A3W       0.131050
     13 CAH         -6.6080     4.3560     2.5600 c3         1 A3W       0.134400
     14 OAG         -6.2080     4.3890     3.9320 os         1 A3W      -0.424100
     15 CAN         -4.7940     4.5070     4.1170 c3         1 A3W       0.134400
     16 CAO         -4.0960     3.3260     3.4360 c3         1 A3W       0.131050
     17 NAP         -4.5190     1.3550     0.6950 nb         1 A3W      -0.851500
     18 CAQ         -3.8900     0.3680     0.0620 cp         1 A3W       0.821500
     19 CAU         -4.6690    -0.6590    -0.6670 cp         1 A3W      -0.287800
     20 CAT         -4.0200    -1.6990    -1.3300 ca         1 A3W       0.510200
     21 NAY         -4.7090    -2.6150    -1.9790 nb         1 A3W      -0.740000
     22 CAZ         -6.0330    -2.5870    -2.0290 ca         1 A3W       0.715200
     23 NBC         -6.7130    -3.5750    -2.7260 nv         1 A3W      -1.021500
     24 CBA         -6.7520    -1.5790    -1.3920 ca         1 A3W      -0.278300
     25 CAV         -6.0680    -0.6020    -0.6950 ca         1 A3W      -0.067300
     26 CAW         -6.8100     0.5020     0.0120 c3         1 A3W       0.689200
     27 FBB         -6.5110     0.4640     1.3790 f          1 A3W      -0.214633
     28 FAS         -6.4210     1.7390    -0.5150 f          1 A3W      -0.214633
     29 FAX         -8.1860     0.3310    -0.1680 f          1 A3W      -0.214633
     30 H1          -0.3610    -0.9100     0.4650 h1         1 A3W       0.066450
     31 H2          -0.3610     0.0590    -1.0200 h1         1 A3W       0.066450
     32 H3           1.8920     0.8860    -0.5080 h1         1 A3W       0.058075
     33 H4           1.8920    -0.8860    -0.5080 h1         1 A3W       0.058075
     34 H5           1.9120     2.0350     1.6670 h1         1 A3W       0.058075
     35 H6           1.9240     1.0360     3.1320 h1         1 A3W       0.058075
     36 H7          -0.3270     2.0100     2.6700 h1         1 A3W       0.066450
     37 H8          -0.3410     0.2380     2.6350 h1         1 A3W       0.066450
     38 H9          -6.1830     3.1810     0.8100 h1         1 A3W       0.066450
     39 H10         -6.2620     2.2480     2.3160 h1         1 A3W       0.066450
     40 H11         -6.3120     5.2790     2.0760 h1         1 A3W       0.058075
     41 H12         -7.6840     4.2400     2.5010 h1         1 A3W       0.058075
     42 H13         -4.4490     5.4330     3.6750 h1         1 A3W       0.058075
     43 H14         -4.5680     4.4980     5.1760 h1         1 A3W       0.058075
     44 H15         -4.4050     2.4020     3.9110 h1         1 A3W       0.066450
     45 H16         -3.0230     3.4430     3.5240 h1         1 A3W       0.066450
     46 H17         -2.9380    -1.7540    -1.3110 h4         1 A3W       0.054100
     47 H18         -7.5520    -3.3490    -3.2230 hn         1 A3W       0.445800
     48 H19         -6.3740    -4.5160    -2.7160 hn         1 A3W       0.445800
     49 H20         -7.8340    -1.5640    -1.4360 ha         1 A3W       0.160000
@<TRIPOS>BOND
     1     2     3 1
     2     2     1 1
     3     3     4 1
     4     4     5 1
     5     1     6 1
     6     6     5 1
     7     6     7 1
     8     7     8 ar
     9     7     9 ar
    10     8    18 ar
    11     9    10 ar
    12    20    21 ar
    13    20    19 ar
    14    21    22 ar
    15    15    16 1
    16    15    14 1
    17    18    19 1
    18    18    17 ar
    19    10    17 ar
    20    10    11 1
    21    16    11 1
    22    19    25 ar
    23    11    12 1
    24    22    23 1
    25    22    24 ar
    26    14    13 1
    27    13    12 1
    28    25    24 ar
    29    25    26 1
    30    27    26 1
    31    26    29 1
    32    26    28 1
    33     1    30 1
    34     1    31 1
    35     2    32 1
    36     2    33 1
    37     4    34 1
    38     4    35 1
    39     5    36 1
    40     5    37 1
    41    12    38 1
    42    12    39 1
    43    13    40 1
    44    13    41 1
    45    15    42 1
    46    15    43 1
    47    16    44 1
    48    16    45 1
    49    20    46 1
    50    23    47 1
    51    23    48 1
    52    24    49 1
@<TRIPOS>SUBSTRUCTURE
     1 A3W         1 TEMP              0 ****  ****    0 ROOT
