@<TRIPOS>MOLECULE
molecule
   55    57     1     0     0
SMALL
bcc


@<TRIPOS>ATOM
      1 N3           0.0000     0.0000     0.0000 n3         1 A3Y      -0.748600
      2 C4           1.5300    -1.3820     5.7070 ca         1 A3Y       0.612200
      3 N2           1.4530    -1.1810     2.1440 nh         1 A3Y      -0.695300
      4 C7           1.4690     0.0000     0.0000 c3         1 A3Y       0.162300
      5 C6           1.9760     0.0000     1.4450 c3         1 A3Y       0.171800
      6 C9          -0.0180    -1.1820     2.1430 c3         1 A3Y       0.171800
      7 C13         -1.1120    -2.7540     7.8800 c3         1 A3Y      -0.372400
      8 C8          -0.5240    -1.1810     0.7000 c3         1 A3Y       0.162300
      9 N5           3.7500    -1.5350     8.4120 n1         1 A3Y      -0.312800
     10 C16         -0.2160    -0.2280     6.7800 c3         1 A3Y       0.185800
     11 C1           3.3270    -1.2650     3.6420 ca         1 A3Y      -0.218300
     12 C2           3.8190    -1.3430     4.9280 ca         1 A3Y      -0.157300
     13 C3           2.9070    -1.4030     5.9900 ca         1 A3Y      -0.096300
     14 N1           1.1050    -1.3110     4.4560 nb         1 A3Y      -0.700000
     15 C5           1.9480    -1.2540     3.4360 ca         1 A3Y       0.645200
     16 C10         -0.5260     0.0770    -1.3700 c3         1 A3Y      -0.029200
     17 C11         -1.9790     0.5550    -1.3320 c3         1 A3Y      -0.202600
     18 O1          -2.0290     1.8850    -0.8110 oh         1 A3Y      -0.599800
     19 N4           0.6140    -1.4390     6.7420 nh         1 A3Y      -0.599300
     20 C12         -0.2140    -2.6490     6.6450 c3         1 A3Y      -0.313200
     21 C14         -2.0000    -1.5100     7.9670 c3         1 A3Y      -0.312400
     22 C15         -1.1130    -0.2620     8.0190 c3         1 A3Y       0.125300
     23 C17         -1.9930     0.9890     8.0460 c3         1 A3Y      -0.164600
     24 O2          -2.7470     1.0150     9.2590 oh         1 A3Y      -0.556800
     25 F1           5.8260    -0.3730     4.7470 f          1 A3Y      -0.229967
     26 F2           5.8100    -2.2950     4.5740 f          1 A3Y      -0.229967
     27 F3           5.6120    -1.3610     6.5750 f          1 A3Y      -0.229967
     28 H4           1.8190    -0.8200    -0.6160 h1         1 A3Y       0.048950
     29 H5           1.8190     0.9360    -0.4180 h1         1 A3Y       0.048950
     30 H2           1.7340     0.8840     2.0220 h1         1 A3Y       0.058700
     31 H3           3.0530    -0.0900     1.3630 h1         1 A3Y       0.058700
     32 H8          -0.3680    -2.1180     2.5620 h1         1 A3Y       0.058700
     33 H9          -0.3690    -0.3620     2.7590 h1         1 A3Y       0.058700
     34 H18         -1.6320    -3.7040     7.8550 hc         1 A3Y       0.165200
     35 H17         -1.8370    -1.9490     7.8550 hc         1 A3Y       0.165200
     36 H7          -1.6010    -1.0900     0.7820 h1         1 A3Y       0.048950
     37 H6          -0.2840    -2.0660     0.1230 h1         1 A3Y       0.048950
     38 H23         -0.8130    -0.1850     5.8780 h1         1 A3Y       0.081200
     39 H22          0.4320     0.6390     6.8220 h1         1 A3Y       0.081200
     40 H1           4.0080    -1.1570     2.8070 ha         1 A3Y       0.165000
     41 H10          0.2710    -0.1280    -2.0750 h1         1 A3Y       0.127200
     42 H11         -0.9200     1.0700    -1.5500 h1         1 A3Y       0.127200
     43 H13         -2.0140     1.5750    -0.9670 h1         1 A3Y       0.190700
     44 H12         -2.5530    -0.0840    -0.6720 h1         1 A3Y       0.190700
     45 H14         -2.9280     2.1390    -0.6840 ho         1 A3Y       0.462000
     46 H16          0.4930    -1.8420     6.7940 h1         1 A3Y       0.195700
     47 H15          0.3260    -3.5800     6.5250 h1         1 A3Y       0.195700
     48 H19         -2.7120    -1.6430     8.7730 hc         1 A3Y       0.082700
     49 H20         -1.3770    -0.6490     8.1790 hc         1 A3Y       0.082700
     50 H21         -0.4960    -0.2960     8.9090 hc         1 A3Y       0.017700
     51 H24         -3.0350     0.6970     8.0850 h1         1 A3Y       0.164700
     52 H25         -1.8160     1.5740     7.1510 h1         1 A3Y       0.164700
     53 H26         -3.2700     1.7990     9.2870 ho         1 A3Y       0.413000
     54 C18          3.3710    -1.4850     7.3440 cg         1 A3Y       0.226800
     55 C19          5.3040    -1.3580     5.1850 c3         1 A3Y       0.803200
@<TRIPOS>BOND
     1    16    17 1
     2    16     1 1
     3    17    18 1
     4     4     1 1
     5     4     5 1
     6     1     8 1
     7     5     3 1
     8     8     6 1
     9    25    55 1
    10    27    55 1
    11    11    15 ar
    12    11    12 ar
    13     3    15 1
    14     3     6 1
    15    55    12 1
    16    55    26 1
    17    15    14 ar
    18    12    13 ar
    19    14     2 ar
    20    13    54 1
    21    13     2 ar
    22    54     9 3
    23     2    19 1
    24    19    10 1
    25    19    20 1
    26    10    22 1
    27    24    23 1
    28    20     7 1
    29    22    23 1
    30    22    21 1
    31     7    21 1
    32     4    28 1
    33     4    29 1
    34     5    30 1
    35     5    31 1
    36     6    32 1
    37     6    33 1
    38     7    34 1
    39     7    35 1
    40     8    36 1
    41     8    37 1
    42    10    38 1
    43    10    39 1
    44    11    40 1
    45    16    41 1
    46    16    42 1
    47    17    43 1
    48    17    44 1
    49    18    45 1
    50    20    46 1
    51    20    47 1
    52    21    48 1
    53    21    49 1
    54    22    50 1
    55    23    51 1
    56    23    52 1
    57    24    53 1
@<TRIPOS>SUBSTRUCTURE
     1 A3Y         1 TEMP              0 ****  ****    0 ROOT
