@<TRIPOS>MOLECULE
A41
   32    33     1     0     0
SMALL
bcc


@<TRIPOS>ATOM
      1 C1           0.0000     0.0000     0.0000 ca         1 A41      -0.060000
      2 C2           1.3820     0.0000     0.0000 ca         1 A41      -0.143000
      3 C3           2.0730     0.0000     1.1970 ca         1 A41       0.016000
      4 C4           1.3820    -0.0090     2.3950 ca         1 A41      -0.141500
      5 C5          -0.0000    -0.0080     2.3950 ca         1 A41       0.016000
      6 C6          -0.6910    -0.0040     1.1970 ca         1 A41      -0.143000
      7 S7           2.2630    -0.0140     3.9210 sy         1 A41       1.023200
      8 N8           2.5090    -1.5970     4.3440 nu         1 A41      -0.358500
      9 O9           1.3620     0.5080     4.8880 o          1 A41      -0.612800
     10 O10          3.5490     0.5110     3.6250 o          1 A41      -0.612800
     11 C11          3.2370    -2.4330     3.5080 ca         1 A41       0.086600
     12 C12          4.3200    -1.9370     2.7930 ca         1 A41      -0.228000
     13 C13          5.0420    -2.7710     1.9650 ca         1 A41      -0.095000
     14 C14          4.6940    -4.1070     1.8370 ca         1 A41      -0.161300
     15 C15          3.6200    -4.6160     2.5320 ca         1 A41      -0.039000
     16 C16          2.8820    -3.7860     3.3810 ca         1 A41      -0.142600
     17 C17          1.7350    -4.3250     4.1330 c          1 A41       0.987200
     18 O18          1.3990    -5.6240     4.0080 o          1 A41      -0.884300
     19 O19          1.0940    -3.5990     4.8670 o          1 A41      -0.884300
     20 C20          5.4910    -5.0050     0.9260 c3         1 A41       0.077200
     21 H1          -0.5420     0.0010    -0.9380 ha         1 A41       0.090000
     22 H2           1.9230     0.0190    -0.9380 ha         1 A41       0.100000
     23 H3           3.1550     0.0590     1.1970 ha         1 A41       0.126500
     24 H5          -0.5420     0.0200     3.3320 ha         1 A41       0.126500
     25 H6          -1.7750    -0.0070     1.1970 ha         1 A41       0.100000
     26 HN8          2.1820    -1.9340     5.2270 hn         1 A41       0.399800
     27 H12          4.5990    -0.8950     2.8880 ha         1 A41       0.163000
     28 H13          5.8870    -2.3800     1.4110 ha         1 A41       0.085000
     29 H15          3.3530    -5.6610     2.4280 ha         1 A41       0.130000
     30 H201         6.1130    -5.6620     1.5220 hc         1 A41      -0.006633
     31 H202         4.8160    -5.5970     0.3210 hc         1 A41      -0.006633
     32 H203         6.1180    -4.4010     0.2820 hc         1 A41      -0.006633
@<TRIPOS>BOND
     1     1     2 ar  
     2     1     6 ar  
     3     1    21 1   
     4     2     3 ar  
     5     2    22 1   
     6     3     4 ar  
     7     3    23 1   
     8     4     5 ar  
     9     4     7 1   
    10     5     6 ar  
    11     5    24 1   
    12     6    25 1   
    13     7     8 1   
    14     7     9 2   
    15     7    10 2   
    16     8    11 1   
    17     8    26 1   
    18    11    12 ar  
    19    11    16 ar  
    20    12    13 ar  
    21    12    27 1   
    22    13    14 ar  
    23    13    28 1   
    24    14    15 ar  
    25    14    20 1   
    26    15    16 ar  
    27    15    29 1   
    28    16    17 1   
    29    17    18 1   
    30    17    19 1   
    31    20    30 1   
    32    20    31 1   
    33    20    32 1   
@<TRIPOS>SUBSTRUCTURE
     1 A41         1 TEMP              0 ****  ****    0 ROOT
