@<TRIPOS>MOLECULE
A42
   35    37     1     0     0
SMALL
bcc


@<TRIPOS>ATOM
      1 C1           0.0000     0.0000     0.0000 c2         1 A42       0.028000
      2 N2           1.3330     0.0000     0.0000 n2         1 A42       0.020000
      3 C3           1.9890     0.0000     1.1400 c2         1 A42      -0.075000
      4 C4           1.2920     0.0010     2.3500 c2         1 A42      -0.064000
      5 N5          -0.0360    -0.0000     2.3510 n2         1 A42      -0.019000
      6 C6          -0.6970    -0.0000     1.2090 c2         1 A42      -0.073000
      7 C7          -0.7170     0.0070    -1.2400 c1         1 A42      -0.103000
      8 N8          -1.3020     0.0130    -2.2140 n1         1 A42      -0.020000
      9 N9           1.9880     0.0000     3.5530 nu         1 A42      -0.178000
     10 C10          1.3180     0.1030     4.7190 c3         1 A42       0.356000
     11 O11          0.1020     0.1030     4.7230 o          1 A42      -0.447000
     12 N12          1.9970     0.2050     5.8780 nu         1 A42       0.073000
     13 C13          1.3050     0.1920     7.0990 ca         1 A42      -0.176000
     14 C14          0.0610    -0.4160     7.1870 ca         1 A42      -0.040000
     15 C15         -0.6200    -0.4290     8.3900 ca         1 A42      -0.205000
     16 C16         -0.0620     0.1670     9.5120 ca         1 A42       0.143000
     17 C17          1.1810     0.7770     9.4290 ca         1 A42      -0.338000
     18 C18          1.8690     0.7860     8.2260 ca         1 A42       0.175000
     19 O19          3.0900     1.3780     8.1450 os         1 A42      -0.185000
     20 C20          3.6070     1.9660     9.3400 c3         1 A42       0.026000
     21 O21         -0.7340     0.1540    10.6940 os         1 A42      -0.184000
     22 C22         -0.1010     0.7860    11.8080 c3         1 A42       0.029000
     23 Cl1         -2.1760    -1.1910     8.4960 cl         1 A42       0.080000
     24 H3           3.0430    -0.2280     1.2480 h4         1 A42       0.146000
     25 H6          -1.7170     0.3000     1.4160 h4         1 A42       0.148000
     26 HN9          1.5260     0.4830     4.2990 DU         1 A42       0.148000
     27 HN12         2.7290    -0.4010     6.1910 hn         1 A42       0.106000
     28 H14         -0.6170    -0.7730     6.4210 ha         1 A42       0.171000
     29 H17          1.3250     1.4100    10.2960 ha         1 A42       0.164000
     30 H201         2.9940     2.7730     9.7230 h1         1 A42       0.046333
     31 H202         4.6760     2.0040     9.5120 h1         1 A42       0.046333
     32 H203         3.2500     1.1100     9.9000 h1         1 A42       0.046333
     33 H221         0.2210     0.0460    12.5310 h1         1 A42       0.050333
     34 H222         0.7660     1.2990    11.4100 h1         1 A42       0.050333
     35 H223        -0.8290     1.5280    12.1130 h1         1 A42       0.050333
@<TRIPOS>BOND
     1     1     2 1   
     2     1     6 1   
     3     1     7 1   
     4     2     3 1   
     5     3     4 1   
     6     3    24 1   
     7     4     5 1   
     8     4     9 1   
     9     5     6 1   
    10     6    25 1   
    11     7     8 1   
    12     9    10 1   
    13     9    26 1   
    14    10    11 1   
    15    10    12 1   
    16    10    26 1   
    17    12    13 1   
    18    12    27 1   
    19    13    14 1   
    20    13    18 1   
    21    14    15 1   
    22    14    28 1   
    23    15    16 1   
    24    15    23 1   
    25    16    17 1   
    26    16    21 1   
    27    17    18 1   
    28    17    29 1   
    29    18    19 1   
    30    19    20 1   
    31    20    30 1   
    32    20    31 1   
    33    20    32 1   
    34    21    22 1   
    35    22    33 1   
    36    22    34 1   
    37    22    35 1   
@<TRIPOS>SUBSTRUCTURE
     1 A42         1 TEMP              0 ****  ****    0 ROOT
