@<TRIPOS>MOLECULE
molecule
   35    36     1     0     0
SMALL
bcc


@<TRIPOS>ATOM
      1 C1           0.0000     0.0000     0.0000 ca         1 A42       0.384000
      2 N2           1.3330     0.0000     0.0000 nb         1 A42      -0.607000
      3 C3           1.9890     0.0000     1.1400 ca         1 A42       0.339900
      4 C4           1.2920     0.0010     2.3500 ca         1 A42       0.351900
      5 N5          -0.0360    -0.0000     2.3510 nb         1 A42      -0.663000
      6 C6          -0.6970    -0.0000     1.2090 ca         1 A42       0.348900
      7 C7          -0.7170     0.0070    -1.2400 cg         1 A42       0.141800
      8 N8          -1.3020     0.0130    -2.2140 n1         1 A42      -0.328800
      9 N9           1.9880     0.0000     3.5530 ns         1 A42      -0.528400
     10 C10          1.3180     0.1030     4.7190 c          1 A42       0.759100
     11 O11          0.1020     0.1030     4.7230 o          1 A42      -0.625100
     12 N12          1.9970     0.2050     5.8780 ns         1 A42      -0.430100
     13 C13          1.3050     0.1920     7.0990 ca         1 A42      -0.070400
     14 C14          0.0610    -0.4160     7.1870 ca         1 A42      -0.061000
     15 C15         -0.6200    -0.4290     8.3900 ca         1 A42      -0.048600
     16 C16         -0.0620     0.1670     9.5120 ca         1 A42       0.176100
     17 C17          1.1810     0.7770     9.4290 ca         1 A42      -0.328000
     18 C18          1.8690     0.7860     8.2260 ca         1 A42       0.205100
     19 O19          3.0900     1.3780     8.1450 os         1 A42      -0.323900
     20 C20          3.6070     1.9660     9.3400 c3         1 A42       0.117700
     21 O21         -0.7340     0.1540    10.6940 os         1 A42      -0.316900
     22 C22         -0.1010     0.7860    11.8080 c3         1 A42       0.112700
     23 Cl1         -2.1760    -1.1910     8.4960 cl         1 A42      -0.083400
     24 H3           3.0430    -0.2280     1.2480 h4         1 A42       0.057100
     25 H6          -1.7170     0.3000     1.4160 h4         1 A42       0.056100
     26 HN9          1.5260     0.4830     4.2990 hn         1 A42       0.361500
     27 HN12         2.7290    -0.4010     6.1910 hn         1 A42       0.330500
     28 H14         -0.6170    -0.7730     6.4210 ha         1 A42       0.200000
     29 H17          1.3250     1.4100    10.2960 ha         1 A42       0.165000
     30 H201         2.9940     2.7730     9.7230 h1         1 A42       0.048367
     31 H202         4.6760     2.0040     9.5120 h1         1 A42       0.048367
     32 H203         3.2500     1.1100     9.9000 h1         1 A42       0.048367
     33 H221         0.2210     0.0460    12.5310 h1         1 A42       0.053367
     34 H222         0.7660     1.2990    11.4100 h1         1 A42       0.053367
     35 H223        -0.8290     1.5280    12.1130 h1         1 A42       0.053367
@<TRIPOS>BOND
     1     1     6 ar
     2     1     2 ar
     3     1     7 1
     4     2     3 ar
     5     3     4 ar
     6     3    24 1
     7     4     9 1
     8     4     5 ar
     9     5     6 ar
    10     6    25 1
    11     7     8 3
    12     9    10 1
    13     9    26 1
    14    10    11 2
    15    10    12 1
    16    12    13 1
    17    12    27 1
    18    13    14 ar
    19    13    18 ar
    20    14    15 ar
    21    14    28 1
    22    15    23 1
    23    15    16 ar
    24    16    21 1
    25    16    17 ar
    26    17    18 ar
    27    17    29 1
    28    18    19 1
    29    19    20 1
    30    20    30 1
    31    20    31 1
    32    20    32 1
    33    21    22 1
    34    22    33 1
    35    22    34 1
    36    22    35 1
@<TRIPOS>SUBSTRUCTURE
     1 A42         1 TEMP              0 ****  ****    0 ROOT
