@<TRIPOS>MOLECULE
A45
   27    29     1     0     0
SMALL
bcc


@<TRIPOS>ATOM
      1 N1           0.0000     0.0000     0.0000 nv         1 A45      -0.634500
      2 C2           1.3830     0.0000     0.0000 ca         1 A45       0.706900
      3 N3           2.0200     0.0000     1.1690 nb         1 A45      -0.716000
      4 C4           3.3410    -0.0000     1.2380 ca         1 A45       0.703600
      5 O5           3.9710    -0.0010     2.4330 oh         1 A45      -0.597300
      6 C6           4.0770     0.0000     0.0300 ca         1 A45      -0.367600
      7 N7           5.3550    -0.0000    -0.3090 nc         1 A45      -0.422400
      8 N8           5.4400    -0.0010    -1.5950 na         1 A45       1.046000
      9 N9           4.2760     0.0000    -2.1470 nc         1 A45      -0.423400
     10 C10          3.3560     0.0000    -1.2000 ca         1 A45       0.275300
     11 N11          2.0130    -0.0040    -1.1570 nb         1 A45      -0.580000
     12 C12          6.6470    -0.0000    -2.3030 ca         1 A45      -0.288200
     13 C13          7.8550    -0.0010    -1.6160 ca         1 A45      -0.082000
     14 C14          9.0500    -0.0010    -2.3110 ca         1 A45      -0.146000
     15 C15          9.0510    -0.0010    -3.6910 ca         1 A45      -0.022000
     16 C16          7.8430     0.0000    -4.3900 ca         1 A45      -0.107600
     17 C17          6.6370    -0.0050    -3.6880 ca         1 A45      -0.021000
     18 C18          7.8410     0.0000    -5.8670 c          1 A45       0.969200
     19 O19          9.0080     0.0010    -6.5420 o          1 A45      -0.871800
     20 O20          6.7900     0.0010    -6.4730 o          1 A45      -0.871800
     21 HN11        -0.5000    -0.8670     0.0010 hn         1 A45       0.271800
     22 HN12        -0.5000     0.8670    -0.0020 hn         1 A45       0.271800
     23 HO5          3.6860     0.7410     2.9400 ho         1 A45       0.409000
     24 H13          7.8610    -0.0000    -0.5330 ha         1 A45       0.115000
     25 H14          9.9890    -0.0010    -1.7700 ha         1 A45       0.096000
     26 H15          9.9900     0.0010    -4.2320 ha         1 A45       0.134000
     27 H17          5.6970    -0.0040    -4.2250 ha         1 A45       0.153000
@<TRIPOS>BOND
     1     1     2 1   
     2     1    21 1   
     3     1    22 1   
     4     2     3 ar  
     5     2    11 ar  
     6     3     4 ar  
     7     4     5 1   
     8     4     6 ar  
     9     5    23 1   
    10     6     7 2   
    11     6    10 ar  
    12     7     8 1   
    13     8     9 1   
    14     8    12 1   
    15     9    10 2   
    16    10    11 ar  
    17    12    13 ar  
    18    12    17 ar  
    19    13    14 ar  
    20    13    24 1   
    21    14    15 ar  
    22    14    25 1   
    23    15    16 ar  
    24    15    26 1   
    25    16    17 ar  
    26    16    18 1   
    27    17    27 1   
    28    18    19 1   
    29    18    20 1   
@<TRIPOS>SUBSTRUCTURE
     1 A45         1 TEMP              0 ****  ****    0 ROOT
