@<TRIPOS>MOLECULE
molecule
   38    40     1     0     0
SMALL
bcc


@<TRIPOS>ATOM
      1 C4           0.0000     0.0000     0.0000 ca         1 A46       0.055600
      2 N1          -0.7010     0.0060    -1.2090 ns         1 A46      -0.478100
      3 C6          -1.8650    -0.6650    -1.3180 c          1 A46       0.696300
      4 C7          -2.5500    -0.7440    -2.6160 cc         1 A46      -0.139300
      5 O1          -2.3490    -1.2050    -0.3400 o          1 A46      -0.575100
      6 N2          -2.1040    -0.1750    -3.7930 na         1 A46      -0.175400
      7 C8          -3.7210    -1.3930    -2.8500 cd         1 A46      -0.093200
      8 C11         -3.0050    -0.4610    -4.7930 ca         1 A46      -0.026200
      9 C12         -4.0370    -1.2300    -4.2210 ca         1 A46      -0.114800
     10 C13         -3.0570    -0.1430    -6.1470 ca         1 A46      -0.140000
     11 C14         -5.1010    -1.6660    -5.0210 ca         1 A46      -0.061000
     12 C15         -4.1140    -0.5830    -6.9130 ca         1 A46      -0.090000
     13 C16         -5.1310    -1.3430    -6.3480 ca         1 A46      -0.001600
     14 Cl1         -6.4510    -1.8840    -7.3360 cl         1 A46      -0.109400
     15 C2           1.3890     0.0000     0.0000 ca         1 A46      -0.146500
     16 C1           2.0780     0.0000     1.1970 ca         1 A46      -0.093500
     17 C5           1.3860    -0.0000     2.3940 ca         1 A46      -0.127300
     18 C9           0.0040    -0.0010     2.3980 ca         1 A46      -0.093500
     19 C10         -0.6920     0.0000     1.2050 ca         1 A46      -0.146500
     20 C3           2.1410     0.0000     3.6990 c3         1 A46       0.201400
     21 C17          2.2880    -1.4380     4.2030 c3         1 A46       0.135400
     22 O2           1.4250     0.7720     4.6640 oh         1 A46      -0.595800
     23 O3           3.1030    -1.4500     5.3760 oh         1 A46      -0.610800
     24 HN1         -0.3520     0.5310    -1.9870 hn         1 A46       0.316500
     25 HN2         -1.2630     0.3570    -3.9000 hn         1 A46       0.296700
     26 H8          -4.3520    -1.8580    -2.1030 ha         1 A46       0.176000
     27 H13         -2.2690     0.4490    -6.5970 ha         1 A46       0.134000
     28 H14         -5.8980    -2.2590    -4.5880 ha         1 A46       0.149000
     29 H15         -4.1520    -0.3350    -7.9670 ha         1 A46       0.147000
     30 H2           1.9320     0.0000    -0.9380 ha         1 A46       0.148500
     31 H1           3.1610     0.0000     1.1980 ha         1 A46       0.143500
     32 H9          -0.5350    -0.0010     3.3380 ha         1 A46       0.143500
     33 H10         -1.7750    -0.0010     1.2090 ha         1 A46       0.148500
     34 H3           3.1230     0.4320     3.5480 h1         1 A46       0.046700
     35 H17          1.3100    -1.8390     4.4380 h1         1 A46       0.034200
     36 H17A         2.7520    -2.0440     3.4340 h1         1 A46       0.034200
     37 HO2          1.9280     1.5360     4.8910 ho         1 A46       0.408000
     38 HO3          3.2630    -2.3410     5.6390 ho         1 A46       0.404000
@<TRIPOS>BOND
     1    14    13 1
     2    12    13 ar
     3    12    10 ar
     4    13    11 ar
     5    10     8 ar
     6    11     9 ar
     7     8     9 ar
     8     8     6 1
     9     9     7 1
    10     6     4 1
    11     7     4 2
    12     4     3 1
    13     3     5 2
    14     3     2 1
    15     2     1 1
    16     1    15 ar
    17     1    19 ar
    18    15    16 ar
    19    19    18 ar
    20    16    17 ar
    21    18    17 ar
    22    17    20 1
    23    23    21 1
    24    20    21 1
    25    20    22 1
    26     2    24 1
    27     6    25 1
    28     7    26 1
    29    10    27 1
    30    11    28 1
    31    12    29 1
    32    15    30 1
    33    16    31 1
    34    18    32 1
    35    19    33 1
    36    20    34 1
    37    21    35 1
    38    21    36 1
    39    22    37 1
    40    23    38 1
@<TRIPOS>SUBSTRUCTURE
     1 A46         1 TEMP              0 ****  ****    0 ROOT
