@<TRIPOS>MOLECULE
molecule
   63    66     1     0     0
SMALL
bcc


@<TRIPOS>ATOM
      1 O1           0.0000     0.0000     0.0000 o          1 A49      -0.381100
      2 C13          1.2130     0.0000     0.0000 c          1 A49       0.531100
      3 N1           1.8860     0.0000     1.1670 nz         1 A49      -0.678400
      4 C31          1.9670    -0.0070    -1.3050 cx         1 A49      -0.279000
      5 C10          2.9520    -1.1520    -1.5460 cx         1 A49      -0.084900
      6 C12          1.6280    -1.1100    -2.3110 cx         1 A49      -0.084900
      7 C26          2.3340     1.3690    -1.8610 c3         1 A49       0.205800
      8 N2           1.1070     2.1050    -2.1990 n3         1 A49      -0.743600
      9 C17          1.3330     3.0130    -3.3310 c3         1 A49       0.143300
     10 C16          0.0820     3.8640    -3.5600 c3         1 A49      -0.156900
     11 C19         -0.0010     1.1810    -2.4730 c3         1 A49       0.143300
     12 C20         -1.2920     1.9780    -2.6760 c3         1 A49      -0.156900
     13 C14         -1.1090     2.9460    -3.8480 c3         1 A49       0.121700
     14 N12         -2.3210     3.7520    -4.0110 n          1 A49      -0.466800
     15 C15         -2.8660     3.9930    -5.3490 cx         1 A49       0.028700
     16 C25         -3.3580     5.4070    -5.6670 cx         1 A49      -0.147400
     17 C24         -4.3660     4.2740    -5.4620 cx         1 A49      -0.147400
     18 C11         -2.9350     4.2710    -2.9300 c          1 A49       0.687700
     19 O13         -4.1450     4.3890    -2.9150 o          1 A49      -0.572100
     20 C4          -2.1370     4.6990    -1.7610 ca         1 A49      -0.155600
     21 C3          -2.5860     5.7420    -0.9490 ca         1 A49      -0.118000
     22 C2          -1.8370     6.1350     0.1410 ca         1 A49      -0.126000
     23 C5          -0.9340     4.0570    -1.4600 ca         1 A49      -0.118000
     24 C6          -0.1950     4.4600    -0.3680 ca         1 A49      -0.126000
     25 C1          -0.6430     5.4980     0.4300 ca         1 A49      -0.080300
     26 C7           0.1690     5.9330     1.6220 c3         1 A49       0.165100
     27 C9          -0.5630     7.0580     2.3560 c3         1 A49      -0.134100
     28 O10          1.4450     6.4030     1.1830 oh         1 A49      -0.576800
     29 C8           0.3610     4.7470     2.5680 c3         1 A49       0.600900
     30 F23          0.9440     5.1900     3.7600 f          1 A49      -0.230967
     31 F21         -0.8810     4.1650     2.8460 f          1 A49      -0.230967
     32 F22          1.1950     3.7980     1.9660 f          1 A49      -0.230967
     33 HN1          2.6890     0.5930     1.0900 hn         1 A49       0.480467
     34 HN1A         1.2900     0.3390     1.8970 hn         1 A49       0.480467
     35 H10          3.8330    -0.8980    -2.1220 hc         1 A49       0.101700
     36 H10A         3.0110    -1.8910    -0.7560 hc         1 A49       0.101700
     37 H12          0.8790    -1.8230    -1.9890 hc         1 A49       0.101700
     38 H12A         1.7000    -0.8290    -3.3550 hc         1 A49       0.101700
     39 H26          2.9390     1.2490    -2.7520 h1         1 A49       0.059700
     40 H26A         2.8940     1.9220    -1.1170 h1         1 A49       0.059700
     41 H17          1.5420     2.4340    -4.2210 h1         1 A49       0.047950
     42 H17A         2.1730     3.6610    -3.1100 h1         1 A49       0.047950
     43 H16          0.2430     4.5210    -4.4060 hc         1 A49       0.097700
     44 H16A        -0.1220     4.4520    -2.6730 hc         1 A49       0.097700
     45 H19         -0.1230     0.5060    -1.6340 h1         1 A49       0.047950
     46 H19A         0.2160     0.6140    -3.3700 h1         1 A49       0.047950
     47 H20         -2.1060     1.2970    -2.8950 hc         1 A49       0.097700
     48 H20A        -1.5150     2.5380    -1.7760 hc         1 A49       0.097700
     49 H14         -0.9180     2.3830    -4.7530 h1         1 A49       0.069700
     50 H15         -2.4400     3.4620    -6.1910 h1         1 A49       0.096700
     51 H25         -3.2210     5.7300    -6.6920 hc         1 A49       0.092450
     52 H25A        -3.2860     6.1200    -4.8550 hc         1 A49       0.092450
     53 H24         -4.8440     3.9050    -6.3610 hc         1 A49       0.092450
     54 H24A        -4.9090     4.2960    -4.5250 hc         1 A49       0.092450
     55 H3          -3.5210     6.2420    -1.1740 ha         1 A49       0.197500
     56 H2          -2.1830     6.9460     0.7710 ha         1 A49       0.143500
     57 H5          -0.5820     3.2440    -2.0830 ha         1 A49       0.197500
     58 H6           0.7400     3.9640    -0.1350 ha         1 A49       0.143500
     59 H9           0.0120     7.3570     3.2240 hc         1 A49       0.068367
     60 H9A         -0.6810     7.9050     1.6920 hc         1 A49       0.068367
     61 H9B         -1.5380     6.7080     2.6720 hc         1 A49       0.068367
     62 HO10         1.7010     7.1490     1.7010 ho         1 A49       0.425000
     63 H13          2.1800    -0.9320     1.3830 hn         1 A49       0.480467
@<TRIPOS>BOND
     1     1     2 2
     2     3     2 1
     3     2     4 1
     4     3    33 1
     5     3    34 1
     6     6     4 1
     7     7     4 1
     8     4     5 1
     9     6     5 1
    10     5    35 1
    11     5    36 1
    12     6    37 1
    13     6    38 1
    14     7     8 1
    15     7    39 1
    16     7    40 1
    17    11     8 1
    18     8     9 1
    19     9    10 1
    20     9    41 1
    21     9    42 1
    22    13    10 1
    23    10    43 1
    24    10    44 1
    25    11    12 1
    26    11    45 1
    27    11    46 1
    28    12    13 1
    29    12    47 1
    30    12    48 1
    31    13    14 1
    32    13    49 1
    33    14    15 1
    34    14    18 1
    35    16    15 1
    36    15    17 1
    37    15    50 1
    38    16    17 1
    39    16    51 1
    40    16    52 1
    41    17    53 1
    42    17    54 1
    43    20    18 1
    44    18    19 2
    45    23    20 ar
    46    20    21 ar
    47    22    21 ar
    48    21    55 1
    49    25    22 ar
    50    22    56 1
    51    24    23 ar
    52    23    57 1
    53    24    25 ar
    54    24    58 1
    55    26    25 1
    56    28    26 1
    57    29    26 1
    58    26    27 1
    59    27    59 1
    60    27    60 1
    61    27    61 1
    62    28    62 1
    63    31    29 1
    64    30    29 1
    65    29    32 1
    66    63     3 1
@<TRIPOS>SUBSTRUCTURE
     1 A49         1 TEMP              0 ****  ****    0 ROOT
