@<TRIPOS>MOLECULE
molecule
   32    33     1     0     0
SMALL
bcc


@<TRIPOS>ATOM
      1 C4           0.0000     0.0000     0.0000 ca         1 A4B      -0.162000
      2 C3           1.3830     0.0000     0.0000 ca         1 A4B      -0.060000
      3 C2           2.0800     0.0000     1.1930 ca         1 A4B      -0.215000
      4 C1           1.3950    -0.0020     2.3970 ca         1 A4B       0.175100
      5 C13         -0.6530     1.0900     4.5470 ca         1 A4B       0.047400
      6 Cl           0.3240     2.4580     4.1160 cl         1 A4B      -0.045400
      7 C12         -1.3470     1.0820     5.7410 ca         1 A4B      -0.101000
      8 C10         -2.1300    -0.0050     6.0830 ca         1 A4B      -0.200300
      9 N           -4.2150     0.5780     7.1860 nz         1 A4B      -0.810600
     10 C9          -2.2230    -1.0910     5.2320 ca         1 A4B      -0.104000
     11 C8          -1.5360    -1.0960     4.0350 ca         1 A4B      -0.100000
     12 C7          -0.7450    -0.0030     3.6850 cp         1 A4B       0.058000
     13 C6          -0.0030    -0.0020     2.4010 cp         1 A4B      -0.126000
     14 O            2.0800    -0.0030     3.5700 os         1 A4B      -0.331900
     15 C            3.5070    -0.0030     3.4890 c3         1 A4B       0.125700
     16 C5          -0.6960    -0.0010     1.1930 ca         1 A4B      -0.069000
     17 H1          -0.5400     0.0000    -0.9390 ha         1 A4B       0.145000
     18 H2          -2.9860    -1.0260     7.7430 hx         1 A4B       0.112200
     19 H3          -2.3390     0.5770     8.1200 hx         1 A4B       0.112200
     20 H4           1.9220     0.0010    -0.9400 ha         1 A4B       0.145000
     21 H5           3.1640     0.0000     1.1870 ha         1 A4B       0.150000
     22 H6          -1.2730     1.9280     6.4150 ha         1 A4B       0.145000
     23 H7          -4.7820    -0.0570     6.6590 hn         1 A4B       0.453800
     24 H8          -4.1420     1.4460     6.6940 hn         1 A4B       0.453800
     25 H10         -2.8380    -1.9400     5.5050 ha         1 A4B       0.135000
     26 H11         -1.6100    -1.9480     3.3700 ha         1 A4B       0.168000
     27 H12          3.8400     0.8930     2.9800 h1         1 A4B       0.049700
     28 H13          3.9250    -0.0280     4.4880 h1         1 A4B       0.049700
     29 H14          3.8370    -0.8760     2.9380 h1         1 A4B       0.049700
     30 H15         -1.7790    -0.0010     1.1890 ha         1 A4B       0.134000
     31 HN3         -4.6370     0.7380     8.0790 hn         1 A4B       0.453800
     32 C11         -2.8830    -0.0070     7.3880 c3         1 A4B       0.162100
@<TRIPOS>BOND
     1    15    14 1
     2    14     4 1
     3     3     4 ar
     4     3     2 ar
     5     4    13 ar
     6     6     5 1
     7     2     1 ar
     8    13    12 1
     9    13    16 ar
    10     5    12 ar
    11     5     7 ar
    12     1    16 ar
    13    12    11 ar
    14     7     8 ar
    15     9    32 1
    16    11    10 ar
    17     8    10 ar
    18     8    32 1
    19     1    17 1
    20    32    18 1
    21    32    19 1
    22     2    20 1
    23     3    21 1
    24     7    22 1
    25     9    23 1
    26     9    24 1
    27    10    25 1
    28    11    26 1
    29    15    27 1
    30    15    28 1
    31    15    29 1
    32    16    30 1
    33    31     9 1
@<TRIPOS>SUBSTRUCTURE
     1 A4B         1 TEMP              0 ****  ****    0 ROOT
