@<TRIPOS>MOLECULE
A4B
   32    33     1     0     0
SMALL
bcc


@<TRIPOS>ATOM
      1 C4           0.0000     0.0000     0.0000 ca         1 A4B      -0.138000
      2 C3           1.3830     0.0000     0.0000 ca         1 A4B      -0.024000
      3 C2           2.0800     0.0000     1.1930 ca         1 A4B      -0.202000
      4 C1           1.3950    -0.0020     2.3970 ca         1 A4B       0.181100
      5 C13         -0.6530     1.0900     4.5470 ca         1 A4B      -0.033600
      6 Cl           0.3240     2.4580     4.1160 cl         1 A4B       0.052600
      7 C12         -1.3470     1.0820     5.7410 ca         1 A4B      -0.071000
      8 C10         -2.1300    -0.0050     6.0830 ca         1 A4B      -0.219300
      9 N           -4.2150     0.5780     7.1860 nz         1 A4B       0.072400
     10 C9          -2.2230    -1.0910     5.2320 ca         1 A4B      -0.071000
     11 C8          -1.5360    -1.0960     4.0350 ca         1 A4B      -0.070000
     12 C7          -0.7450    -0.0030     3.6850 cp         1 A4B       0.070000
     13 C6          -0.0030    -0.0020     2.4010 cp         1 A4B      -0.141000
     14 O            2.0800    -0.0030     3.5700 os         1 A4B      -0.315900
     15 C            3.5070    -0.0030     3.4890 c3         1 A4B       0.243700
     16 C5          -0.6960    -0.0010     1.1930 ca         1 A4B      -0.038000
     17 H1          -0.5400     0.0000    -0.9390 ha         1 A4B       0.116000
     18 H2          -2.9860    -1.0260     7.7430 hx         1 A4B       0.081700
     19 H3          -2.3390     0.5770     8.1200 hx         1 A4B       0.081700
     20 H4           1.9220     0.0010    -0.9400 ha         1 A4B       0.111000
     21 H5           3.1640     0.0000     1.1870 ha         1 A4B       0.132000
     22 H6          -1.2730     1.9280     6.4150 ha         1 A4B       0.115000
     23 H7          -4.7820    -0.0570     6.6590 hn         1 A4B       0.222133
     24 H8          -4.1420     1.4460     6.6940 hn         1 A4B       0.222133
     25 H10         -2.8380    -1.9400     5.5050 ha         1 A4B       0.107000
     26 H11         -1.6100    -1.9480     3.3700 ha         1 A4B       0.133000
     27 H12          3.8400     0.8930     2.9800 h1         1 A4B       0.005033
     28 H13          3.9250    -0.0280     4.4880 h1         1 A4B       0.005033
     29 H14          3.8370    -0.8760     2.9380 h1         1 A4B       0.005033
     30 H15         -1.7790    -0.0010     1.1890 ha         1 A4B       0.103000
     31 HN3         -4.6370     0.7380     8.0790 hn         1 A4B       0.222133
     32 C11         -2.8830    -0.0070     7.3880 c3         1 A4B       0.041100
@<TRIPOS>BOND
     1     1     2 ar  
     2     1    16 ar  
     3     1    17 1   
     4     2     3 ar  
     5     2    20 1   
     6     3     4 ar  
     7     3    21 1   
     8     4    13 ar  
     9     4    14 1   
    10     5     6 1   
    11     5     7 ar  
    12     5    12 ar  
    13     7     8 ar  
    14     7    22 1   
    15     8    10 ar  
    16     8    32 1   
    17     9    23 1   
    18     9    24 1   
    19     9    31 1   
    20     9    32 1   
    21    10    11 ar  
    22    10    25 1   
    23    11    12 ar  
    24    11    26 1   
    25    12    13 1   
    26    13    16 ar  
    27    14    15 1   
    28    15    27 1   
    29    15    28 1   
    30    15    29 1   
    31    16    30 1   
    32    18    32 1   
    33    19    32 1   
@<TRIPOS>SUBSTRUCTURE
     1 A4B         1 TEMP              0 ****  ****    0 ROOT
