@<TRIPOS>MOLECULE
A4C
  102   107     1     0     0
SMALL
bcc


@<TRIPOS>ATOM
      1 OD1          0.0000     0.0000     0.0000 o          1 A4C      -0.606600
      2 CD1          1.2170     0.0000     0.0000 c          1 A4C       0.587200
      3 ND1          1.8910     0.0000     1.1680 ns         1 A4C      -0.214400
      4 CD2          1.1590    -0.0010     2.4360 c3         1 A4C       0.046500
      5 CD3          2.1520    -0.0000     3.5990 c3         1 A4C       0.122800
      6 ND2          1.4180    -0.0010     4.8710 n3         1 A4C      -0.513600
      7 CD8          0.9170    -1.3680     5.0690 c3         1 A4C       0.165600
      8 CD7          2.4080     0.2430     5.9290 c3         1 A4C       0.165600
      9 C4           1.9520     0.0010    -1.2750 ca         1 A4C      -0.184900
     10 C3           3.3410     0.0010    -1.2910 ca         1 A4C      -0.075000
     11 C2           4.0360     0.0030    -2.4910 ca         1 A4C      -0.117000
     12 C12          1.2330    -0.0050    -2.5520 ca         1 A4C       0.416100
     13 C11          1.9910     0.0030    -3.7530 ca         1 A4C      -0.168800
     14 C1           3.3930     0.0030    -3.6920 ca         1 A4C      -0.060000
     15 N10         -0.0930     0.0020    -2.5810 nb         1 A4C      -0.505500
     16 C14         -0.7720     0.0020    -3.7290 ca         1 A4C       0.385100
     17 C5          -2.1800     0.0030    -3.7240 ca         1 A4C      -0.134300
     18 C6          -2.8620     0.0040    -4.9010 ca         1 A4C      -0.099000
     19 C7          -2.1890     0.0050    -6.1220 ca         1 A4C      -0.093000
     20 C13         -0.0910     0.0040    -4.9740 ca         1 A4C      -0.155800
     21 C8          -0.8290     0.0050    -6.1700 ca         1 A4C      -0.095000
     22 C9           1.3190     0.0040    -4.9930 ca         1 A4C       0.065600
     23 N9           2.0150     0.0040    -6.1800 nu         1 A4C      -0.470600
     24 CX1          2.3700     1.4020    -6.4600 c3         1 A4C       0.144800
     25 CX2          3.0380     1.4930    -7.8350 c3         1 A4C      -0.036900
     26 CX3          3.4070     2.9490    -8.1260 c3         1 A4C      -0.025400
     27 OD2          9.1640     6.0420   -16.7940 o          1 A4C      -0.606600
     28 ND3         11.2350     5.9330   -15.9980 ns         1 A4C      -0.214400
     29 CD5         11.8010     5.9610   -17.3490 c3         1 A4C       0.046500
     30 CD6         13.3270     5.8990   -17.2640 c3         1 A4C       0.122800
     31 ND4         13.8950     5.9270   -18.6190 n3         1 A4C      -0.513600
     32 CD0         15.3440     6.1110   -18.4650 c3         1 A4C       0.165600
     33 CD9         13.6970     4.5870   -19.1870 c3         1 A4C       0.165600
     34 C25          9.3300     5.9500   -14.4690 ca         1 A4C      -0.184900
     35 C26         10.1570     5.8770   -13.3560 ca         1 A4C      -0.075000
     36 C15          9.6240     5.8490   -12.0760 ca         1 A4C      -0.117000
     37 C27          7.8790     5.9980   -14.2670 ca         1 A4C       0.416100
     38 C16          7.3830     5.9720   -12.9370 ca         1 A4C      -0.168800
     39 C17          8.2790     5.8930   -11.8610 ca         1 A4C      -0.060000
     40 N12          7.0530     6.0680   -15.3020 nb         1 A4C      -0.505500
     41 C18          5.7290     6.1130   -15.1460 ca         1 A4C       0.385100
     42 C19          4.8800     6.1870   -16.2670 ca         1 A4C      -0.134300
     43 C20          3.5320     6.2330   -16.0940 ca         1 A4C      -0.099000
     44 C21          2.9680     6.2050   -14.8190 ca         1 A4C      -0.093000
     45 C22          5.1510     6.0870   -13.8490 ca         1 A4C      -0.155800
     46 C23          3.7540     6.1350   -13.7110 ca         1 A4C      -0.095000
     47 C24          5.9900     6.0120   -12.7190 ca         1 A4C       0.065600
     48 N11          5.4670     5.9840   -11.4460 nu         1 A4C      -0.470600
     49 CX4          5.1120     4.5860   -11.1650 c3         1 A4C       0.144800
     50 CX5          4.4450     4.4950    -9.7920 c3         1 A4C      -0.036900
     51 CX6          4.0750     3.0400    -9.5000 c3         1 A4C      -0.025400
     52 HND1         2.8910     0.0150     1.1680 hn         1 A4C       0.174000
     53 HD21         0.5350     0.8830     2.4940 h1         1 A4C       0.035200
     54 HD22         0.5360    -0.8860     2.4940 h1         1 A4C       0.035200
     55 HD31         2.7760    -0.8840     3.5410 h1         1 A4C       0.012200
     56 HD32         2.7740     0.8850     3.5420 h1         1 A4C       0.012200
     57 HD81         0.8180    -1.5660     6.1290 h1         1 A4C       0.005367
     58 HD82        -0.0500    -1.4700     4.5910 h1         1 A4C       0.005367
     59 HD83         1.6130    -2.0740     4.6330 h1         1 A4C       0.005367
     60 HD71         2.8610     1.2160     5.7830 h1         1 A4C       0.005367
     61 HD72         3.1750    -0.5210     5.8900 h1         1 A4C       0.005367
     62 HD73         1.9190     0.2140     6.8950 h1         1 A4C       0.005367
     63 H3           3.8870     0.0010    -0.3550 ha         1 A4C       0.100500
     64 H2           5.1190     0.0030    -2.4730 ha         1 A4C       0.103500
     65 H1           3.9690     0.0040    -4.6090 ha         1 A4C       0.111500
     66 H5          -2.7190     0.0020    -2.7850 ha         1 A4C       0.126000
     67 H6          -3.9450     0.0040    -4.8890 ha         1 A4C       0.104000
     68 H7          -2.7560     0.0060    -7.0450 ha         1 A4C       0.102000
     69 H8          -0.3180     0.0060    -7.1250 ha         1 A4C       0.112500
     70 HN9          2.6680    -0.7280    -6.3780 hn         1 A4C       0.290800
     71 HX11         1.4740     2.0110    -6.4530 h1         1 A4C       0.017950
     72 HX12         3.0560     1.7590    -5.7010 h1         1 A4C       0.017950
     73 HX21         3.9340     0.8840    -7.8420 hc         1 A4C       0.018700
     74 HX22         2.3520     1.1360    -8.5940 hc         1 A4C       0.018700
     75 HX31         2.5110     3.5570    -8.1190 hc         1 A4C       0.016950
     76 HX32         4.0930     3.3060    -7.3680 hc         1 A4C       0.016950
     77 HND3        11.8410     5.9040   -15.2020 hn         1 A4C       0.174000
     78 HD51        11.5050     6.8770   -17.8460 h1         1 A4C       0.035200
     79 HD52        11.4360     5.1110   -17.9120 h1         1 A4C       0.035200
     80 HD61        13.6920     6.7490   -16.7010 h1         1 A4C       0.012200
     81 HD62        13.6240     4.9830   -16.7670 h1         1 A4C       0.012200
     82 HD01        15.5390     7.0600   -17.9800 h1         1 A4C       0.005367
     83 HD02        15.8150     6.1010   -19.4410 h1         1 A4C       0.005367
     84 HD03        15.7480     5.3070   -17.8610 h1         1 A4C       0.005367
     85 HD91        13.7450     3.8490   -18.3960 h1         1 A4C       0.005367
     86 HD92        12.7280     4.5390   -19.6680 h1         1 A4C       0.005367
     87 HD93        14.4730     4.3860   -19.9170 h1         1 A4C       0.005367
     88 H26         11.2320     5.8400   -13.4890 ha         1 A4C       0.100500
     89 H15         10.2930     5.7920   -11.2260 ha         1 A4C       0.103500
     90 H17          7.8980     5.8700   -10.8470 ha         1 A4C       0.111500
     91 H19          5.3000     6.2090   -17.2660 ha         1 A4C       0.126000
     92 H20          2.8850     6.2890   -16.9610 ha         1 A4C       0.104000
     93 H21          1.8910     6.2430   -14.7100 ha         1 A4C       0.102000
     94 H23          3.3040     6.1140   -12.7250 ha         1 A4C       0.112500
     95 HN11         4.8700     6.7240   -11.1340 hn         1 A4C       0.290800
     96 HX41         6.0090     3.9780   -11.1720 h1         1 A4C       0.017950
     97 HX42         4.4270     4.2290   -11.9240 h1         1 A4C       0.017950
     98 HX51         3.5500     5.1040    -9.7840 hc         1 A4C       0.018700
     99 HX52         5.1310     4.8520    -9.0330 hc         1 A4C       0.018700
    100 HX61         4.9700     2.4310    -9.5080 hc         1 A4C       0.016950
    101 HX62         3.3890     2.6830   -10.2590 hc         1 A4C       0.016950
    102 CD4          9.8990     5.9780   -15.8270 c          1 A4C       0.587200
@<TRIPOS>BOND
     1     1     2 2   
     2     2     3 1   
     3     2     9 1   
     4     3     4 1   
     5     3    52 1   
     6     4     5 1   
     7     4    53 1   
     8     4    54 1   
     9     5     6 1   
    10     5    55 1   
    11     5    56 1   
    12     6     7 1   
    13     6     8 1   
    14     7    57 1   
    15     7    58 1   
    16     7    59 1   
    17     8    60 1   
    18     8    61 1   
    19     8    62 1   
    20     9    10 ar  
    21     9    12 ar  
    22    10    11 ar  
    23    10    63 1   
    24    11    14 ar  
    25    11    64 1   
    26    12    13 ar  
    27    12    15 ar  
    28    13    14 ar  
    29    13    22 ar  
    30    14    65 1   
    31    15    16 ar  
    32    16    17 ar  
    33    16    20 ar  
    34    17    18 ar  
    35    17    66 1   
    36    18    19 ar  
    37    18    67 1   
    38    19    21 ar  
    39    19    68 1   
    40    20    21 ar  
    41    20    22 ar  
    42    21    69 1   
    43    22    23 1   
    44    23    24 1   
    45    23    70 1   
    46    24    25 1   
    47    24    71 1   
    48    24    72 1   
    49    25    26 1   
    50    25    73 1   
    51    25    74 1   
    52    26    51 1   
    53    26    75 1   
    54    26    76 1   
    55    27   102 2   
    56    28    29 1   
    57    28    77 1   
    58    28   102 1   
    59    29    30 1   
    60    29    78 1   
    61    29    79 1   
    62    30    31 1   
    63    30    80 1   
    64    30    81 1   
    65    31    32 1   
    66    31    33 1   
    67    32    82 1   
    68    32    83 1   
    69    32    84 1   
    70    33    85 1   
    71    33    86 1   
    72    33    87 1   
    73    34    35 ar  
    74    34    37 ar  
    75    34   102 1   
    76    35    36 ar  
    77    35    88 1   
    78    36    39 ar  
    79    36    89 1   
    80    37    38 ar  
    81    37    40 ar  
    82    38    39 ar  
    83    38    47 ar  
    84    39    90 1   
    85    40    41 ar  
    86    41    42 ar  
    87    41    45 ar  
    88    42    43 ar  
    89    42    91 1   
    90    43    44 ar  
    91    43    92 1   
    92    44    46 ar  
    93    44    93 1   
    94    45    46 ar  
    95    45    47 ar  
    96    46    94 1   
    97    47    48 1   
    98    48    49 1   
    99    48    95 1   
   100    49    50 1   
   101    49    96 1   
   102    49    97 1   
   103    50    51 1   
   104    50    98 1   
   105    50    99 1   
   106    51   100 1   
   107    51   101 1   
@<TRIPOS>SUBSTRUCTURE
     1 A4C         1 TEMP              0 ****  ****    0 ROOT
