@<TRIPOS>MOLECULE
A4D
   32    34     1     0     0
SMALL
bcc


@<TRIPOS>ATOM
      1 N1           0.0000     0.0000     0.0000 nb         1 A4D      -0.746000
      2 C2           1.3210     0.0000     0.0000 ca         1 A4D       0.692900
      3 N3           2.0280     0.0000     1.1100 nb         1 A4D      -0.676000
      4 C4           1.4270     0.0020     2.2950 ca         1 A4D       0.280800
      5 C5           0.0230     0.0040     2.3490 ca         1 A4D      -0.247200
      6 C6          -0.6870     0.0030     1.1380 ca         1 A4D       0.592200
      7 N6          -2.0710     0.0050     1.1280 nv         1 A4D      -0.482500
      8 N7          -0.3260     0.0070     3.6590 nc         1 A4D      -0.496100
      9 C8           0.7480     0.0060     4.3930 cd         1 A4D       0.256700
     10 N9           1.8560     0.0050     3.5980 na         1 A4D       0.182000
     11 OAB          6.1440     1.5840     5.0560 oh         1 A4D      -0.546800
     12 OAC          4.4850     1.8930     3.1500 oh         1 A4D      -0.539800
     13 OAK          3.5380    -0.8070     5.2290 os         1 A4D      -0.380600
     14 CAO          4.8390     1.1600     5.4550 c3         1 A4D       0.123100
     15 CAP          3.8310     1.3530     4.3000 c3         1 A4D       0.127100
     16 CAQ          4.8210    -0.3620     5.7180 c3         1 A4D       0.185100
     17 CAR          3.3230    -0.0750     4.0020 c3         1 A4D       0.165800
     18 H2           1.8420    -0.0020    -0.9500 h5         1 A4D      -0.004900
     19 HN6         -2.5650     0.0040     0.2580 hn         1 A4D       0.275800
     20 HN6A        -2.5780     0.0070     1.9910 hn         1 A4D       0.275800
     21 H8           0.7600     0.0050     5.4770 h5         1 A4D       0.034800
     22 HOAB         6.4660     2.2250     5.6680 ho         1 A4D       0.387000
     23 HOAC         4.3680     2.8280     3.1310 ho         1 A4D       0.393000
     24 HSAD         5.4600    -2.6910     8.7030 hs         1 A4D       0.184800
     25 HAO          4.5100     1.6990     6.3350 h1         1 A4D       0.013700
     26 HAP          3.0120     1.9910     4.6120 h1         1 A4D       0.019700
     27 HAQ          5.6190    -0.8470     5.1690 h1         1 A4D       0.060700
     28 HAR          3.8990    -0.5170     3.1970 h2         1 A4D       0.076700
     29 CAG          4.9470    -0.6460     7.2160 c3         1 A4D       0.095700
     30 HAG          4.1010    -0.2150     7.7380 h1         1 A4D       0.038200
     31 SAD          4.9790    -2.4380     7.4920 sh         1 A4D      -0.380900
     32 HAGA         5.8640    -0.2070     7.5910 h1         1 A4D       0.038200
@<TRIPOS>BOND
     1     1     2 ar  
     2     1     6 ar  
     3     2     3 ar  
     4     2    18 1   
     5     3     4 ar  
     6     4     5 ar  
     7     4    10 1   
     8     5     6 ar  
     9     5     8 1   
    10     6     7 1   
    11     7    19 1   
    12     7    20 1   
    13     8     9 2   
    14     9    10 1   
    15     9    21 1   
    16    10    17 1   
    17    11    14 1   
    18    11    22 1   
    19    12    15 1   
    20    12    23 1   
    21    13    16 1   
    22    13    17 1   
    23    14    15 1   
    24    14    16 1   
    25    14    25 1   
    26    15    17 1   
    27    15    26 1   
    28    16    27 1   
    29    16    29 1   
    30    17    28 1   
    31    24    31 1   
    32    29    30 1   
    33    29    31 1   
    34    29    32 1   
@<TRIPOS>SUBSTRUCTURE
     1 A4D         1 TEMP              0 ****  ****    0 ROOT
