@<TRIPOS>MOLECULE
molecule
   32    34     1     0     0
SMALL
bcc


@<TRIPOS>ATOM
      1 N1           0.0000     0.0000     0.0000 nb         1 A4D      -0.837000
      2 C2           1.3210     0.0000     0.0000 ca         1 A4D       0.741900
      3 N3           2.0280     0.0000     1.1100 nb         1 A4D      -0.788000
      4 C4           1.4270     0.0020     2.2950 ca         1 A4D       0.477800
      5 C5           0.0230     0.0040     2.3490 ca         1 A4D      -0.215200
      6 C6          -0.6870     0.0030     1.1380 ca         1 A4D       0.788200
      7 N6          -2.0710     0.0050     1.1280 nv         1 A4D      -0.984500
      8 N7          -0.3260     0.0070     3.6590 nc         1 A4D      -0.587100
      9 C8           0.7480     0.0060     4.3930 cd         1 A4D       0.428700
     10 N9           1.8560     0.0050     3.5980 na         1 A4D      -0.262000
     11 OAB          6.1440     1.5840     5.0560 oh         1 A4D      -0.568800
     12 OAC          4.4850     1.8930     3.1500 oh         1 A4D      -0.559800
     13 OAK          3.5380    -0.8070     5.2290 os         1 A4D      -0.397600
     14 CAO          4.8390     1.1600     5.4550 c3         1 A4D       0.086100
     15 CAP          3.8310     1.3530     4.3000 c3         1 A4D       0.094100
     16 CAQ          4.8210    -0.3620     5.7180 c3         1 A4D       0.142100
     17 CAR          3.3230    -0.0750     4.0020 c3         1 A4D       0.265800
     18 H2           1.8420    -0.0020    -0.9500 h5         1 A4D       0.062100
     19 HN6         -2.5650     0.0040     0.2580 hn         1 A4D       0.449800
     20 HN6A        -2.5780     0.0070     1.9910 hn         1 A4D       0.449800
     21 H8           0.7600     0.0050     5.4770 h5         1 A4D       0.083800
     22 HOAB         6.4660     2.2250     5.6680 ho         1 A4D       0.403000
     23 HOAC         4.3680     2.8280     3.1310 ho         1 A4D       0.409000
     24 HSAD         5.4600    -2.6910     8.7030 hs         1 A4D       0.210800
     25 HAO          4.5100     1.6990     6.3350 h1         1 A4D       0.047700
     26 HAP          3.0120     1.9910     4.6120 h1         1 A4D       0.058700
     27 HAQ          5.6190    -0.8470     5.1690 h1         1 A4D       0.095700
     28 HAR          3.8990    -0.5170     3.1970 h2         1 A4D       0.121700
     29 CAG          4.9470    -0.6460     7.2160 c3         1 A4D       0.035700
     30 HAG          4.1010    -0.2150     7.7380 h1         1 A4D       0.066200
     31 SAD          4.9790    -2.4380     7.4920 sh         1 A4D      -0.384900
     32 HAGA         5.8640    -0.2070     7.5910 h1         1 A4D       0.066200
@<TRIPOS>BOND
     1     1     2 ar
     2     1     6 ar
     3     2     3 ar
     4     3     4 ar
     5     4     5 ar
     6     4    10 1
     7     5     6 ar
     8     5     8 1
     9     6     7 1
    10     8     9 2
    11     9    10 1
    12    10    17 1
    13    11    14 1
    14    12    15 1
    15    31    29 1
    16    29    16 1
    17    13    16 1
    18    13    17 1
    19    14    15 1
    20    14    16 1
    21    15    17 1
    22     2    18 1
    23     7    19 1
    24     7    20 1
    25     9    21 1
    26    11    22 1
    27    12    23 1
    28    31    24 1
    29    29    30 1
    30    29    32 1
    31    14    25 1
    32    15    26 1
    33    16    27 1
    34    17    28 1
@<TRIPOS>SUBSTRUCTURE
     1 A4D         1 TEMP              0 ****  ****    0 ROOT
