@<TRIPOS>MOLECULE
A4E
   82    86     1     0     0
SMALL
bcc


@<TRIPOS>ATOM
      1 C1           0.0000     0.0000     0.0000 c3         1 A4E      -0.003100
      2 C2           1.5300     0.0000     0.0000 c3         1 A4E      -0.053500
      3 C3           2.0400     0.0000     1.4430 c3         1 A4E       0.101800
      4 N4           3.5090     0.0200     1.4410 n3         1 A4E      -0.510600
      5 C5           4.0400    -0.0380     2.8090 c3         1 A4E       0.004800
      6 C6           3.4780     1.1070     3.6130 c          1 A4E       0.577100
      7 C10          3.4900     1.7150     7.2610 c3         1 A4E      -0.113300
      8 C11          4.3360     2.8220     7.8940 c3         1 A4E       0.014900
      9 C12          2.2770     1.4030     8.1410 c3         1 A4E       0.014900
     10 C13          4.3230     0.4700     7.0490 ca         1 A4E       0.348600
     11 C15          5.6410    -1.3600     7.5340 ca         1 A4E       0.347600
     12 C16          6.3450    -2.2030     8.5670 c3         1 A4E       0.167100
     13 O17          5.4630    -3.2300     9.0230 oh         1 A4E      -0.583800
     14 C19          6.5070    -2.9190     5.7720 c3         1 A4E       0.088200
     15 C21          5.6580    -4.9780     6.9140 ca         1 A4E      -0.065500
     16 C22          4.8430    -6.0930     6.9590 ca         1 A4E      -0.129000
     17 C23          3.9890    -6.3680     5.9040 ca         1 A4E       0.113900
     18 C25          3.9530    -5.5260     4.8060 ca         1 A4E      -0.129000
     19 C26          4.7700    -4.4110     4.7630 ca         1 A4E      -0.065500
     20 C27          5.0720    -0.9270     5.2580 ca         1 A4E      -0.133000
     21 C28          4.3550     0.1910     5.6920 ca         1 A4E      -0.221700
     22 C35          7.9100     1.3370     3.6390 c3         1 A4E       0.211400
     23 C36          7.4390     1.0320     2.2150 c3         1 A4E       0.078500
     24 C37          7.5030    -0.4770     1.9680 c3         1 A4E      -0.015100
     25 C38          3.4880     1.1920    -0.7080 c3         1 A4E      -0.023200
     26 O7           2.8940     2.0110     3.0540 o          1 A4E      -0.705100
     27 N8           3.6240     1.1250     4.9530 n          1 A4E       0.066000
     28 C9           3.0400     2.1260     5.8490 c3         1 A4E       0.031000
     29 N14          4.9570    -0.3010     7.9140 nb         1 A4E      -0.490000
     30 C18          5.7220    -1.7060     6.1980 ca         1 A4E      -0.138600
     31 C20          5.6180    -4.1340     5.8190 ca         1 A4E      -0.111300
     32 C29          4.0150     1.2020     0.7290 c3         1 A4E       0.074500
     33 C30          5.5440     1.1730     0.7130 c3         1 A4E       0.143800
     34 N31          6.0540     1.4980     2.0510 n3         1 A4E      -0.540600
     35 C32          5.9560     2.9410     2.3160 c3         1 A4E       0.089800
     36 C33          6.4420     3.2270     3.7400 c3         1 A4E       0.212400
     37 O34          7.7780     2.7390     3.8900 os         1 A4E      -0.393600
     38 N39          2.0200     1.2000    -0.6920 ny         1 A4E       0.041000
     39 H42         -0.3610     0.8900     0.5010 hc         1 A4E       0.035700
     40 H41         -0.3610    -0.8790     0.5200 hc         1 A4E       0.035700
     41 H40         -0.3610    -0.0110    -1.0210 hc         1 A4E       0.035700
     42 H43          1.8960    -0.8830    -0.5100 hx         1 A4E       0.092700
     43 H45          1.6930    -0.8940     1.9480 h1         1 A4E       0.069200
     44 H44          1.6690     0.8790     1.9570 h1         1 A4E       0.069200
     45 H46          5.1200     0.0370     2.7810 h1         1 A4E       0.098700
     46 H47          3.7540    -0.9760     3.2680 h1         1 A4E       0.098700
     47 H50          5.2980     2.8700     7.3970 hc         1 A4E       0.015367
     48 H51          4.4840     2.6070     8.9460 hc         1 A4E       0.015367
     49 H52          3.8270     3.7720     7.7870 hc         1 A4E       0.015367
     50 H53          1.7160     0.5860     7.7050 hc         1 A4E       0.015367
     51 H54          2.6130     1.1230     9.1320 hc         1 A4E       0.015367
     52 H55          1.6450     2.2800     8.2080 hc         1 A4E       0.015367
     53 H56          6.6370    -1.5800     9.4030 h1         1 A4E       0.010700
     54 H57          7.2260    -2.6530     8.1260 h1         1 A4E       0.010700
     55 H58          5.4630    -3.2480     9.9660 ho         1 A4E       0.400000
     56 H59          7.3470    -3.0600     6.4420 hc         1 A4E       0.028700
     57 H60          6.8710    -2.7770     4.7610 hc         1 A4E       0.028700
     58 H61          6.3260    -4.7630     7.7390 ha         1 A4E       0.111000
     59 H62          4.8730    -6.7530     7.8180 ha         1 A4E       0.119500
     60 H63          3.2860    -5.7410     3.9790 ha         1 A4E       0.119500
     61 H64          4.7420    -3.7520     3.9040 ha         1 A4E       0.111000
     62 H65          5.1210    -1.1770     4.2050 ha         1 A4E       0.134000
     63 H74          8.9480     1.0480     3.7450 h1         1 A4E       0.022200
     64 H73          7.3010     0.7860     4.3460 h1         1 A4E       0.022200
     65 H75          8.0780     1.5460     1.5070 h1         1 A4E       0.034700
     66 H77          8.0550    -0.9510     2.7700 hc         1 A4E       0.018367
     67 H78          6.4980    -0.8800     1.9340 hc         1 A4E       0.018367
     68 H76          8.0000    -0.6670     1.0250 hc         1 A4E       0.018367
     69 H80          3.8470     2.0720    -1.2290 hx         1 A4E       0.079200
     70 H79          3.8380     0.3000    -1.2130 hx         1 A4E       0.079200
     71 H49          1.9600     2.0840     5.7850 h1         1 A4E       0.042700
     72 H48          3.4410     3.1040     5.6110 h1         1 A4E       0.042700
     73 H66          3.6710     2.0980     1.2310 h1         1 A4E       0.092700
     74 H67          5.9120     1.9020    -0.0000 h1         1 A4E       0.035700
     75 H68          5.8840     0.1850     0.4260 h1         1 A4E       0.035700
     76 H70          6.5740     3.4800     1.6090 h1         1 A4E       0.030200
     77 H69          4.9240     3.2560     2.2170 h1         1 A4E       0.030200
     78 H71          6.4260     4.2950     3.9190 h1         1 A4E       0.018200
     79 H72          5.7940     2.7270     4.4500 h1         1 A4E       0.018200
     80 H82          1.6770     1.2040    -1.6320 hn         1 A4E       0.240300
     81 H81          1.6970     2.0150    -0.2100 hn         1 A4E       0.240300
     82 F24          3.1910    -7.4580     5.9470 f          1 A4E      -0.124900
@<TRIPOS>BOND
     1     1     2 1   
     2     1    39 1   
     3     1    40 1   
     4     1    41 1   
     5     2     3 1   
     6     2    38 1   
     7     2    42 1   
     8     3     4 1   
     9     3    43 1   
    10     3    44 1   
    11     4     5 1   
    12     4    32 1   
    13     5     6 1   
    14     5    45 1   
    15     5    46 1   
    16     6    26 2   
    17     6    27 1   
    18     7     8 1   
    19     7     9 1   
    20     7    10 1   
    21     7    28 1   
    22     8    47 1   
    23     8    48 1   
    24     8    49 1   
    25     9    50 1   
    26     9    51 1   
    27     9    52 1   
    28    10    21 ar  
    29    10    29 ar  
    30    11    12 1   
    31    11    29 ar  
    32    11    30 ar  
    33    12    13 1   
    34    12    53 1   
    35    12    54 1   
    36    13    55 1   
    37    14    30 1   
    38    14    31 1   
    39    14    56 1   
    40    14    57 1   
    41    15    16 ar  
    42    15    31 ar  
    43    15    58 1   
    44    16    17 ar  
    45    16    59 1   
    46    17    18 ar  
    47    17    82 1   
    48    18    19 ar  
    49    18    60 1   
    50    19    31 ar  
    51    19    61 1   
    52    20    21 ar  
    53    20    30 ar  
    54    20    62 1   
    55    21    27 1   
    56    22    23 1   
    57    22    37 1   
    58    22    63 1   
    59    22    64 1   
    60    23    24 1   
    61    23    34 1   
    62    23    65 1   
    63    24    66 1   
    64    24    67 1   
    65    24    68 1   
    66    25    32 1   
    67    25    38 1   
    68    25    69 1   
    69    25    70 1   
    70    27    28 1   
    71    28    71 1   
    72    28    72 1   
    73    32    33 1   
    74    32    73 1   
    75    33    34 1   
    76    33    74 1   
    77    33    75 1   
    78    34    35 1   
    79    35    36 1   
    80    35    76 1   
    81    35    77 1   
    82    36    37 1   
    83    36    78 1   
    84    36    79 1   
    85    38    80 1   
    86    38    81 1   
@<TRIPOS>SUBSTRUCTURE
     1 A4E         1 TEMP              0 ****  ****    0 ROOT
