@<TRIPOS>MOLECULE
molecule
   38    41     1     0     0
SMALL
bcc


@<TRIPOS>ATOM
      1 O5           0.0000     0.0000     0.0000 o          1 A4F      -0.814300
      2 C17          1.3460     0.0000     0.0000 c          1 A4F       0.872200
      3 O4           1.9540     0.0000     1.0520 o          1 A4F      -0.814300
      4 C18          2.0850     0.0010    -1.2800 ca         1 A4F      -0.073600
      5 C19          1.3950     0.0030    -2.4850 ca         1 A4F      -0.108000
      6 C20          2.0970     0.0040    -3.6870 ca         1 A4F       0.143600
      7 N1           1.4040     0.0050    -4.8920 nv         1 A4F      -0.990200
      8 C16          3.4890     0.0040    -3.6880 ca         1 A4F      -0.170000
      9 C15          4.1860     0.0040    -2.5000 ca         1 A4F      -0.132000
     10 C14          3.4970     0.0080    -1.2840 ca         1 A4F      -0.083000
     11 C1           4.2400     0.0130    -0.0150 cc         1 A4F       0.168000
     12 C13          4.9150    -1.1930     0.4760 ca         1 A4F      -0.186300
     13 C12          4.8650    -2.3890    -0.2500 ca         1 A4F      -0.045000
     14 C11          5.5000    -3.4980     0.2250 ca         1 A4F      -0.194000
     15 C10          6.1980    -3.4470     1.4330 ca         1 A4F       0.138100
     16 O3           6.8240    -4.5580     1.8950 oh         1 A4F      -0.523100
     17 C9           6.2570    -2.2730     2.1650 ca         1 A4F      -0.256300
     18 C8           5.6170    -1.1330     1.6970 ca         1 A4F       0.400000
     19 O2           5.6690     0.0150     2.4010 os         1 A4F      -0.380800
     20 C2           4.3350     1.1830     0.7740 cc         1 A4F      -0.191100
     21 C7           5.0630     1.1470     1.9860 cc         1 A4F       0.359700
     22 C6           5.1530     2.2920     2.7530 cd         1 A4F      -0.337200
     23 C3           3.7140     2.3750     0.3540 cc         1 A4F      -0.010200
     24 C4           3.8070     3.4940     1.1150 cd         1 A4F      -0.267200
     25 C5           4.5260     3.4690     2.3280 c          1 A4F       0.589500
     26 O1           4.6080     4.4840     3.0100 o          1 A4F      -0.620100
     27 H2           0.3130    -0.0540    -2.4890 ha         1 A4F       0.170000
     28 H3           1.1420     0.8720    -5.3180 hn         1 A4F       0.417800
     29 H4           1.1580    -0.8610    -5.3290 hn         1 A4F       0.417800
     30 H5           4.0270     0.0030    -4.6280 ha         1 A4F       0.117000
     31 H6           5.2700     0.0070    -2.5090 ha         1 A4F       0.117000
     32 H7           4.3240    -2.4330    -1.1880 ha         1 A4F       0.155000
     33 H8           5.4610    -4.4240    -0.3360 ha         1 A4F       0.136000
     34 H9           7.7200    -4.5600     1.6000 ho         1 A4F       0.414000
     35 H10          6.8010    -2.2440     3.1010 ha         1 A4F       0.150000
     36 H11          5.7050     2.2790     3.6860 ha         1 A4F       0.146000
     37 H12          3.1600     2.3980    -0.5770 ha         1 A4F       0.145000
     38 H13          3.3250     4.4080     0.7920 ha         1 A4F       0.139000
@<TRIPOS>BOND
     1    16    15 1
     2    15    17 ar
     3    15    14 ar
     4    17    18 ar
     5    14    13 ar
     6    18    19 1
     7    18    12 ar
     8    13    12 ar
     9    19    21 1
    10    12    11 1
    11     3     2 1
    12    21    22 2
    13    21    20 1
    14    11    20 2
    15    11    10 1
    16    22    25 1
    17    20    23 1
    18     2     4 1
    19     2     1 1
    20    10     4 ar
    21    10     9 ar
    22     4     5 ar
    23    25    26 2
    24    25    24 1
    25     9     8 ar
    26    23    24 2
    27     5     6 ar
    28     8     6 ar
    29     6     7 1
    30     5    27 1
    31     7    28 1
    32     7    29 1
    33     8    30 1
    34     9    31 1
    35    13    32 1
    36    14    33 1
    37    16    34 1
    38    17    35 1
    39    22    36 1
    40    23    37 1
    41    24    38 1
@<TRIPOS>SUBSTRUCTURE
     1 A4F         1 TEMP              0 ****  ****    0 ROOT
