@<TRIPOS>MOLECULE
A4F
   38    41     1     0     0
SMALL
bcc


@<TRIPOS>ATOM
      1 O5           0.0000     0.0000     0.0000 o          1 A4F      -0.865300
      2 C17          1.3460     0.0000     0.0000 c          1 A4F       0.964200
      3 O4           1.9540     0.0000     1.0520 o          1 A4F      -0.865300
      4 C18          2.0850     0.0010    -1.2800 ca         1 A4F      -0.073600
      5 C19          1.3950     0.0030    -2.4850 ca         1 A4F      -0.073000
      6 C20          2.0970     0.0040    -3.6870 ca         1 A4F       0.002600
      7 N1           1.4040     0.0050    -4.8920 nv         1 A4F      -0.558200
      8 C16          3.4890     0.0040    -3.6880 ca         1 A4F      -0.142000
      9 C15          4.1860     0.0040    -2.5000 ca         1 A4F      -0.112000
     10 C14          3.4970     0.0080    -1.2840 ca         1 A4F      -0.076000
     11 C1           4.2400     0.0130    -0.0150 cc         1 A4F       0.201000
     12 C13          4.9150    -1.1930     0.4760 ca         1 A4F      -0.200300
     13 C12          4.8650    -2.3890    -0.2500 ca         1 A4F      -0.011000
     14 C11          5.5000    -3.4980     0.2250 ca         1 A4F      -0.185000
     15 C10          6.1980    -3.4470     1.4330 ca         1 A4F       0.160100
     16 O3           6.8240    -4.5580     1.8950 oh         1 A4F      -0.504100
     17 C9           6.2570    -2.2730     2.1650 ca         1 A4F      -0.256300
     18 C8           5.6170    -1.1330     1.6970 ca         1 A4F       0.409000
     19 O2           5.6690     0.0150     2.4010 os         1 A4F      -0.347800
     20 C2           4.3350     1.1830     0.7740 cd         1 A4F      -0.204100
     21 C7           5.0630     1.1470     1.9860 cd         1 A4F       0.370700
     22 C6           5.1530     2.2920     2.7530 cc         1 A4F      -0.344200
     23 C3           3.7140     2.3750     0.3540 cd         1 A4F       0.021800
     24 C4           3.8070     3.4940     1.1150 cc         1 A4F      -0.251200
     25 C5           4.5260     3.4690     2.3280 c          1 A4F       0.641500
     26 O1           4.6080     4.4840     3.0100 o          1 A4F      -0.660100
     27 H2           0.3130    -0.0540    -2.4890 ha         1 A4F       0.141000
     28 H3           1.1420     0.8720    -5.3180 hn         1 A4F       0.261800
     29 H4           1.1580    -0.8610    -5.3290 hn         1 A4F       0.261800
     30 H5           4.0270     0.0030    -4.6280 ha         1 A4F       0.094000
     31 H6           5.2700     0.0070    -2.5090 ha         1 A4F       0.093000
     32 H7           4.3240    -2.4330    -1.1880 ha         1 A4F       0.122000
     33 H8           5.4610    -4.4240    -0.3360 ha         1 A4F       0.111000
     34 H9           7.7200    -4.5600     1.6000 ho         1 A4F       0.396000
     35 H10          6.8010    -2.2440     3.1010 ha         1 A4F       0.124000
     36 H11          5.7050     2.2790     3.6860 ha         1 A4F       0.126000
     37 H12          3.1600     2.3980    -0.5770 ha         1 A4F       0.114000
     38 H13          3.3250     4.4080     0.7920 ha         1 A4F       0.113000
@<TRIPOS>BOND
     1     1     2 1   
     2     2     3 1   
     3     2     4 1   
     4     4     5 ar  
     5     4    10 ar  
     6     5     6 ar  
     7     5    27 1   
     8     6     7 1   
     9     6     8 ar  
    10     7    28 1   
    11     7    29 1   
    12     8     9 ar  
    13     8    30 1   
    14     9    10 ar  
    15     9    31 1   
    16    10    11 1   
    17    11    12 1   
    18    11    20 2   
    19    12    13 ar  
    20    12    18 ar  
    21    13    14 ar  
    22    13    32 1   
    23    14    15 ar  
    24    14    33 1   
    25    15    16 1   
    26    15    17 ar  
    27    16    34 1   
    28    17    18 ar  
    29    17    35 1   
    30    18    19 1   
    31    19    21 1   
    32    20    21 1   
    33    20    23 1   
    34    21    22 2   
    35    22    25 1   
    36    22    36 1   
    37    23    24 2   
    38    23    37 1   
    39    24    25 1   
    40    24    38 1   
    41    25    26 2   
@<TRIPOS>SUBSTRUCTURE
     1 A4F         1 TEMP              0 ****  ****    0 ROOT
