@<TRIPOS>MOLECULE
A4G
   36    38     1     0     0
SMALL
bcc


@<TRIPOS>ATOM
      1 N3           0.0000     0.0000     0.0000 nb         1 A4G      -0.633000
      2 C4           1.3320     0.0000     0.0000 ca         1 A4G       0.256800
      3 N2          -0.0820    -0.0020    -2.3120 nb         1 A4G      -0.693000
      4 C7          -0.6720    -0.0010    -1.1310 ca         1 A4G       0.648900
      5 C6           1.2450    -0.0010    -2.4160 ca         1 A4G       0.583200
      6 C9           2.3890     1.2680    -5.6810 c3         1 A4G      -0.035400
      7 C13          3.7530    -1.3330    -5.4140 c3         1 A4G       0.210400
      8 C8           1.5800     1.2430    -4.3820 c3         1 A4G       0.151800
      9 C2           3.4320     0.0000    -0.9250 cc         1 A4G      -0.095400
     10 C3           3.5380    -0.0010     0.4140 cd         1 A4G      -0.285100
     11 N1           2.2880     0.0000     0.9780 na         1 A4G       0.272900
     12 C5           2.0050    -0.0010    -1.2370 ca         1 A4G      -0.324400
     13 N4           1.8590    -0.0030    -3.6550 nh         1 A4G      -0.517300
     14 C10          2.0090     0.0590    -6.5380 c3         1 A4G      -0.022400
     15 C11          2.2630    -1.2230    -5.7410 c3         1 A4G      -0.058700
     16 C12          1.4580    -1.1770    -4.4400 c3         1 A4G       0.155800
     17 H1          -1.7540    -0.0030    -1.0910 h5         1 A4G      -0.002900
     18 H2           2.1690     2.1790    -6.2250 hc         1 A4G       0.023200
     19 H3           3.4460     1.2270    -5.4480 hc         1 A4G       0.023200
     20 H4           3.9200    -2.1920    -4.7750 h1         1 A4G       0.001700
     21 H5           4.0790    -0.4350    -4.9040 h1         1 A4G       0.001700
     22 H6           0.5240     1.2940    -4.6160 h1         1 A4G       0.018200
     23 H7           1.8610     2.0890    -3.7670 h1         1 A4G       0.018200
     24 H8           5.5070     0.1210    -1.3870 hc         1 A4G       0.007700
     25 H9           4.5750    -0.9350    -2.4580 hc         1 A4G       0.007700
     26 H10          4.4390     0.8220    -2.6100 hc         1 A4G       0.007700
     27 H11          4.4700    -0.0020     0.9660 h4         1 A4G       0.148000
     28 H12          2.1020    -0.0010     1.9620 hn         1 A4G       0.120700
     29 H13          0.9600     0.1180    -6.8010 hc         1 A4G       0.022700
     30 H14          2.6130     0.0500    -7.4380 hc         1 A4G       0.022700
     31 H15          1.9520    -2.0790    -6.3270 hc         1 A4G       0.035700
     32 H16          1.6490    -2.0760    -3.8670 h1         1 A4G       0.021200
     33 H17          0.4020    -1.1100    -4.6740 h1         1 A4G       0.021200
     34 H18          5.2670    -2.0050    -6.4560 ho         1 A4G       0.386000
     35 C1           4.5680     0.0020    -1.9140 c3         1 A4G       0.096100
     36 O1           4.4960    -1.4890    -6.6240 oh         1 A4G      -0.596800
@<TRIPOS>BOND
     1     1     2 ar  
     2     1     4 ar  
     3     2    11 1   
     4     2    12 ar  
     5     3     4 ar  
     6     3     5 ar  
     7     4    17 1   
     8     5    12 ar  
     9     5    13 1   
    10     6     8 1   
    11     6    14 1   
    12     6    18 1   
    13     6    19 1   
    14     7    15 1   
    15     7    20 1   
    16     7    21 1   
    17     7    36 1   
    18     8    13 1   
    19     8    22 1   
    20     8    23 1   
    21     9    10 2   
    22     9    12 1   
    23     9    35 1   
    24    10    11 1   
    25    10    27 1   
    26    11    28 1   
    27    13    16 1   
    28    14    15 1   
    29    14    29 1   
    30    14    30 1   
    31    15    16 1   
    32    15    31 1   
    33    16    32 1   
    34    16    33 1   
    35    24    35 1   
    36    25    35 1   
    37    26    35 1   
    38    34    36 1   
@<TRIPOS>SUBSTRUCTURE
     1 A4G         1 TEMP              0 ****  ****    0 ROOT
