@<TRIPOS>MOLECULE
molecule
   36    38     1     0     0
SMALL
bcc


@<TRIPOS>ATOM
      1 N3           0.0000     0.0000     0.0000 nb         1 A4G      -0.765000
      2 C4           1.3320     0.0000     0.0000 ca         1 A4G       0.493800
      3 N2          -0.0820    -0.0020    -2.3120 nb         1 A4G      -0.802000
      4 C7          -0.6720    -0.0010    -1.1310 ca         1 A4G       0.707900
      5 C6           1.2450    -0.0010    -2.4160 ca         1 A4G       0.685200
      6 C9           2.3890     1.2680    -5.6810 c3         1 A4G      -0.083400
      7 C13          3.7530    -1.3330    -5.4140 c3         1 A4G       0.143400
      8 C8           1.5800     1.2430    -4.3820 c3         1 A4G       0.167800
      9 C2           3.4320     0.0000    -0.9250 cc         1 A4G      -0.110400
     10 C3           3.5380    -0.0010     0.4140 cd         1 A4G      -0.112100
     11 N1           2.2880     0.0000     0.9780 na         1 A4G      -0.274100
     12 C5           2.0050    -0.0010    -1.2370 ca         1 A4G      -0.319400
     13 N4           1.8590    -0.0030    -3.6550 nh         1 A4G      -0.721300
     14 C10          2.0090     0.0590    -6.5380 c3         1 A4G      -0.075400
     15 C11          2.2630    -1.2230    -5.7410 c3         1 A4G      -0.071700
     16 C12          1.4580    -1.1770    -4.4400 c3         1 A4G       0.171800
     17 H1          -1.7540    -0.0030    -1.0910 h5         1 A4G       0.059100
     18 H2           2.1690     2.1790    -6.2250 hc         1 A4G       0.051200
     19 H3           3.4460     1.2270    -5.4480 hc         1 A4G       0.051200
     20 H4           3.9200    -2.1920    -4.7750 h1         1 A4G       0.033700
     21 H5           4.0790    -0.4350    -4.9040 h1         1 A4G       0.033700
     22 H6           0.5240     1.2940    -4.6160 h1         1 A4G       0.047200
     23 H7           1.8610     2.0890    -3.7670 h1         1 A4G       0.047200
     24 H8           5.5070     0.1210    -1.3870 hc         1 A4G       0.042700
     25 H9           4.5750    -0.9350    -2.4580 hc         1 A4G       0.042700
     26 H10          4.4390     0.8220    -2.6100 hc         1 A4G       0.042700
     27 H11          4.4700    -0.0020     0.9660 h4         1 A4G       0.173000
     28 H12          2.1020    -0.0010     1.9620 hn         1 A4G       0.307700
     29 H13          0.9600     0.1180    -6.8010 hc         1 A4G       0.051200
     30 H14          2.6130     0.0500    -7.4380 hc         1 A4G       0.051200
     31 H15          1.9520    -2.0790    -6.3270 hc         1 A4G       0.062700
     32 H16          1.6490    -2.0760    -3.8670 h1         1 A4G       0.050700
     33 H17          0.4020    -1.1100    -4.6740 h1         1 A4G       0.050700
     34 H18          5.2670    -2.0050    -6.4560 ho         1 A4G       0.399000
     35 C1           4.5680     0.0020    -1.9140 c3         1 A4G      -0.011900
     36 O1           4.4960    -1.4890    -6.6240 oh         1 A4G      -0.617800
@<TRIPOS>BOND
     1    36     7 1
     2     7    15 1
     3    15    14 1
     4    15    16 1
     5    14     6 1
     6    16    13 1
     7     6     8 1
     8    13     8 1
     9    13     5 1
    10    35     9 1
    11     5     3 ar
    12     5    12 ar
    13     9    12 1
    14     9    10 2
    15     3     4 ar
    16    12     2 ar
    17    10    11 1
    18     4     1 ar
    19     2     1 ar
    20     2    11 1
    21     4    17 1
    22     6    18 1
    23     6    19 1
    24     7    20 1
    25     7    21 1
    26     8    22 1
    27     8    23 1
    28    35    24 1
    29    35    25 1
    30    35    26 1
    31    10    27 1
    32    11    28 1
    33    14    29 1
    34    14    30 1
    35    15    31 1
    36    16    32 1
    37    16    33 1
    38    36    34 1
@<TRIPOS>SUBSTRUCTURE
     1 A4G         1 TEMP              0 ****  ****    0 ROOT
