@<TRIPOS>MOLECULE
molecule
   42    43     1     0     0
SMALL
bcc


@<TRIPOS>ATOM
      1 C1           0.0000     0.0000     0.0000 c          1 A4H       0.858800
      2 C2           1.4180     0.0000     0.0000 ce         1 A4H      -0.143200
      3 C3           2.0940     0.0000     1.1720 ce         1 A4H      -0.126200
      4 C5           1.3960     0.9890     3.2710 c2         1 A4H      -0.280200
      5 C6           3.6010     0.0530     1.1730 cx         1 A4H      -0.057500
      6 C24          4.3050     0.0890     2.5300 cx         1 A4H      -0.156900
      7 O11         -0.6080    -0.1040     1.0480 o          1 A4H      -0.835300
      8 O12         -0.6740     0.1200    -1.1630 o          1 A4H      -0.835300
      9 C23          4.3510    -1.1810     1.6780 cx         1 A4H      -0.156900
     10 C4           1.3630    -0.0520     2.4380 ce         1 A4H       0.006000
     11 C7           0.5310     0.9960     4.5050 c3         1 A4H       0.251200
     12 O7          -0.2240    -0.2170     4.5540 oh         1 A4H      -0.569800
     13 C12         -0.4300     2.1820     4.4370 c3         1 A4H      -0.052000
     14 C14         -1.4240     1.9700     3.2940 c3         1 A4H      -0.081100
     15 C8           1.4070     1.0780     5.7190 c2         1 A4H      -0.079400
     16 C9           1.0890     1.7840     6.7980 ce         1 A4H      -0.269200
     17 C10         -0.1650     2.5440     6.8510 c          1 A4H       0.573300
     18 O10         -0.3730     3.3490     7.7340 o          1 A4H      -0.556100
     19 C11         -1.1890     2.2880     5.7670 c3         1 A4H      -0.171400
     20 H1           1.9590     0.0380    -0.9380 ha         1 A4H       0.110000
     21 H2           1.9660     1.8730     3.0080 ha         1 A4H       0.125000
     22 H3           4.1060     0.6000     0.3850 hc         1 A4H       0.071700
     23 H4           3.0000     0.0950     6.7340 hc         1 A4H       0.048700
     24 H5           3.4790     0.9330     5.2520 hc         1 A4H       0.048700
     25 H6           2.5960    -0.5960     5.1560 hc         1 A4H       0.048700
     26 H7          -0.2210     4.3200     4.5290 hc         1 A4H       0.045367
     27 H8           0.5750     3.5690     3.1380 hc         1 A4H       0.045367
     28 H9           1.2920     3.4300     4.7490 hc         1 A4H       0.045367
     29 H10          3.6550     0.0470     3.3950 hc         1 A4H       0.067950
     30 H11          5.2240     0.6620     2.5650 hc         1 A4H       0.067950
     31 H13          5.2980    -1.3830     1.1920 hc         1 A4H       0.067950
     32 H14          3.7290    -1.9980     2.0220 hc         1 A4H       0.067950
     33 H15          0.7140    -0.8930     2.6500 ha         1 A4H       0.168000
     34 H16          0.0460    -0.7260     5.3000 ho         1 A4H       0.386000
     35 H17         -0.9170     2.0970     2.3450 hc         1 A4H       0.045367
     36 H18         -1.8350     0.9690     3.3520 hc         1 A4H       0.045367
     37 H19         -2.2260     2.6940     3.3740 hc         1 A4H       0.045367
     38 H20          1.7610     1.7980     7.6470 ha         1 A4H       0.135000
     39 H21         -1.7110     1.3600     5.9670 hc         1 A4H       0.071200
     40 H22         -1.8920     3.1110     5.7240 hc         1 A4H       0.071200
     41 C13          2.7120     0.3250     5.7150 c3         1 A4H      -0.065900
     42 C15          0.3620     3.4690     4.1960 c3         1 A4H      -0.081100
@<TRIPOS>BOND
     1    18    17 2
     2    14    13 1
     3    17    16 1
     4    17    19 1
     5    16    15 2
     6    19    13 1
     7    15    41 1
     8    15    11 1
     9    13    11 1
    10    13    42 1
    11    11    12 1
    12    11     4 1
    13     4    10 2
    14    10     3 1
    15     6     5 1
    16     6     9 1
    17     3     5 1
    18     3     2 2
    19     7     1 1
    20     5     9 1
    21     2     1 1
    22     1     8 1
    23     2    20 1
    24     4    21 1
    25     5    22 1
    26    41    23 1
    27    41    24 1
    28    41    25 1
    29    42    26 1
    30    42    27 1
    31    42    28 1
    32     6    29 1
    33     6    30 1
    34     9    31 1
    35     9    32 1
    36    10    33 1
    37    12    34 1
    38    14    35 1
    39    14    36 1
    40    14    37 1
    41    16    38 1
    42    19    39 1
    43    19    40 1
@<TRIPOS>SUBSTRUCTURE
     1 A4H         1 TEMP              0 ****  ****    0 ROOT
