@<TRIPOS>MOLECULE
molecule
   45    47     1     0     0
SMALL
bcc


@<TRIPOS>ATOM
      1 N3           0.0000     0.0000     0.0000 nh         1 A4J      -0.703300
      2 C4           0.6590     3.9120    -4.0040 c3         1 A4J      -0.208200
      3 N2           0.3480     1.9360    -1.2710 nb         1 A4J      -0.754000
      4 C7          -1.4590     3.2150    -2.1110 ca         1 A4J      -0.196300
      5 C6          -0.0800     2.9820    -1.9580 ca         1 A4J       0.637200
      6 C9          -1.8740     1.2530    -0.8230 ca         1 A4J      -0.245300
      7 C13          0.6980    -0.5720     2.2230 c3         1 A4J       0.196100
      8 C8          -2.3670     2.3210    -1.5250 ca         1 A4J      -0.085300
      9 C16         -1.9280     4.3470    -2.8530 cg         1 A4J       0.241800
     10 C1           4.6860     3.2860    -4.0870 c3         1 A4J      -0.160100
     11 C2           3.0350     3.7810    -3.5550 c3         1 A4J       0.219800
     12 C3           2.0200     4.4620    -4.5020 c3         1 A4J      -0.181400
     13 N1           0.8320     3.8520    -2.5290 nh         1 A4J      -0.560300
     14 C5           2.2180     3.3890    -2.3050 c3         1 A4J       0.120800
     15 C10         -0.4960     1.0810    -0.7110 ca         1 A4J       0.676200
     16 C11          1.4740     0.0000     0.0000 c3         1 A4J       0.086300
     17 C12          1.9310     0.0000     1.4740 c3         1 A4J       0.196100
     18 C14         -0.4710     0.0260     1.4010 c3         1 A4J       0.086300
     19 O1           0.6620    -0.1120     3.5750 oh         1 A4J      -0.665800
     20 O2           3.0680    -0.8470     1.6510 oh         1 A4J      -0.665800
     21 F1          -4.4950     2.2010    -2.4890 f          1 A4J      -0.222300
     22 F2          -3.7920     4.0670    -2.6060 f          1 A4J      -0.222300
     23 F3          -4.5330     3.1350    -0.7910 f          1 A4J      -0.222300
     24 N4          -2.2990     5.2340    -3.4570 n1         1 A4J      -0.358800
     25 H9          -0.2720     3.8840    -4.5570 h1         1 A4J       0.202200
     26 H8           0.2640     4.5130    -3.1940 h1         1 A4J       0.202200
     27 H12         -2.7480     0.6960    -0.5070 ha         1 A4J       0.166000
     28 H2           0.6880    -1.6540     2.1750 h1         1 A4J       0.062700
     29 H3           5.3420     3.0990    -3.2460 hc         1 A4J       0.055367
     30 H5           4.9270     3.6130    -5.0910 hc         1 A4J       0.055367
     31 H4           4.3370     2.4100    -4.6190 hc         1 A4J       0.055367
     32 H7           2.6640     3.5940    -4.5680 hc         1 A4J       0.100200
     33 H6           2.3210     4.9040    -5.4440 hc         1 A4J       0.100200
     34 H11          2.4560     4.2660    -1.7160 h1         1 A4J       0.112200
     35 H10          2.5410     2.4620    -1.8470 h1         1 A4J       0.112200
     36 H14          1.5530    -1.0080    -0.3890 h1         1 A4J       0.092200
     37 H13          1.7720     0.6310    -0.8280 h1         1 A4J       0.092200
     38 H1           2.1420     1.0090     1.8060 h1         1 A4J       0.062700
     39 H16         -0.6960    -1.0060     1.6440 h1         1 A4J       0.092200
     40 H15         -1.4350     0.3700     1.0470 h1         1 A4J       0.092200
     41 H17          1.0790    -0.3220     4.3950 ho         1 A4J       0.442000
     42 H18          3.6850    -0.4310     2.2300 ho         1 A4J       0.442000
     43 H19          4.6200     4.8410    -2.6950 ho         1 A4J       0.400000
     44 C15         -3.8020     3.0360    -1.7310 c3         1 A4J       0.753200
     45 O3           3.6820     4.7680    -2.7620 oh         1 A4J      -0.702800
@<TRIPOS>BOND
     1    45    11 1
     2    10    11 1
     3    11    14 1
     4    11    12 1
     5    14    13 1
     6    12     2 1
     7    24     9 3
     8    13     2 1
     9    13     5 1
    10     9     4 1
    11    22    44 1
    12     5     4 ar
    13     5     3 ar
    14     4     8 ar
    15     3    15 ar
    16     8    44 1
    17     8     6 ar
    18    44    21 1
    19    44    23 1
    20    15     6 ar
    21    15     1 1
    22    20    17 1
    23    18     1 1
    24    18     7 1
    25     1    16 1
    26    17     7 1
    27    17    16 1
    28     7    19 1
    29     2    25 1
    30     2    26 1
    31     6    27 1
    32     7    28 1
    33    10    29 1
    34    10    30 1
    35    10    31 1
    36    12    32 1
    37    12    33 1
    38    14    34 1
    39    14    35 1
    40    16    36 1
    41    16    37 1
    42    17    38 1
    43    18    39 1
    44    18    40 1
    45    19    41 1
    46    20    42 1
    47    45    43 1
@<TRIPOS>SUBSTRUCTURE
     1 A4J         1 TEMP              0 ****  ****    0 ROOT
