@<TRIPOS>MOLECULE
molecule
   36    36     1     0     0
SMALL
bcc


@<TRIPOS>ATOM
      1 C1           0.0000     0.0000     0.0000 c          1 A4K       0.878800
      2 C2           1.4180     0.0000     0.0000 ce         1 A4K      -0.293200
      3 C4           1.3780    -0.0130     2.4120 cg         1 A4K       0.162700
      4 C5           0.7730    -0.0180     3.4190 c1         1 A4K      -0.135100
      5 C6           1.3700    -0.0310     2.3530 c3         1 A4K       0.336100
      6 C8           0.1010    -1.1840     5.4420 c2         1 A4K      -0.120400
      7 C9           1.0760    -2.1510     6.2650 ce         1 A4K      -0.256200
      8 C10          2.5300    -1.7250     6.5300 c          1 A4K       0.532300
      9 C11          2.7950    -0.1460     5.8050 c3         1 A4K      -0.147400
     10 C12          1.6610     0.6800     6.0480 c3         1 A4K      -0.084000
     11 C13         -1.3710    -2.0660     5.1030 c3         1 A4K      -0.066900
     12 C14          1.1340     0.9920     7.2520 c3         1 A4K      -0.101100
     13 C15          1.7260     1.9350     5.0010 c3         1 A4K      -0.101100
     14 O11         -0.6090     0.0000     1.0530 o          1 A4K      -0.824300
     15 O12         -0.6740     0.0070    -1.1690 o          1 A4K      -0.824300
     16 C3           2.0940    -0.0070     1.1720 ce         1 A4K      -0.296900
     17 F20          0.2780     1.3180     2.7590 f          1 A4K      -0.056300
     18 F21          0.5970    -1.0130     2.7970 f          1 A4K      -0.056300
     19 F22          2.0750     0.5390     3.4430 f          1 A4K      -0.056300
     20 C7           0.2650    -0.0230     4.8980 c3         1 A4K       0.134100
     21 O7          -0.6400     0.8940     4.9550 oh         1 A4K      -0.468800
     22 O10          3.2310    -2.1930     7.2620 o          1 A4K      -0.479100
     23 H1           2.0490     0.8720     0.1260 ha         1 A4K       0.194000
     24 H2           0.7870    -3.1890     6.3730 ha         1 A4K       0.141000
     25 H3           3.3180     0.1650     6.7010 hc         1 A4K       0.074200
     26 H4           3.4550    -0.5850     5.0670 hc         1 A4K       0.074200
     27 H5          -1.4900    -3.1430     5.0900 hc         1 A4K       0.047700
     28 H6          -1.8790    -1.6940     5.9850 hc         1 A4K       0.047700
     29 H7          -1.8320    -1.3800     4.4030 hc         1 A4K       0.047700
     30 H8           0.4040     1.7470     7.5190 hc         1 A4K       0.050033
     31 H9           0.6710     0.2280     7.8640 hc         1 A4K       0.050033
     32 H10          1.9680     1.0980     7.9350 hc         1 A4K       0.050033
     33 H11          2.2780     1.6840     4.1040 hc         1 A4K       0.050033
     34 H12          2.4250     2.5380     5.5680 hc         1 A4K       0.050033
     35 H13          0.7640     2.4340     5.0000 hc         1 A4K       0.050033
     36 H15         -1.1200     0.5410     5.6860 ho         1 A4K       0.396000
@<TRIPOS>BOND
     1    22     8 2
     2    12    10 1
     3     7     8 1
     4     7     6 2
     5     8     9 1
     6    11     6 1
     7     6    20 1
     8     9    10 1
     9    10    20 1
    10    10    13 1
    11    21    20 1
    12    20     4 1
    13     4     3 3
    14     3    16 1
    15    18     5 1
    16    14     1 1
    17    16     5 1
    18    16     2 2
    19    19     5 1
    20     5    17 1
    21     1     2 1
    22     1    15 1
    23     2    23 1
    24     7    24 1
    25     9    25 1
    26     9    26 1
    27    11    27 1
    28    11    28 1
    29    11    29 1
    30    12    30 1
    31    12    31 1
    32    12    32 1
    33    13    33 1
    34    13    34 1
    35    13    35 1
    36    21    36 1
@<TRIPOS>SUBSTRUCTURE
     1 A4K         1 TEMP              0 ****  ****    0 ROOT
