@<TRIPOS>MOLECULE
molecule
   75    80     1     0     0
SMALL
bcc


@<TRIPOS>ATOM
      1 C4           0.0000     0.0000     0.0000 ca         1 A4M      -0.221200
      2 C5           1.7870     0.0000     1.2280 cc         1 A4M       0.407700
      3 C6           0.8120     0.0060     3.5560 cy         1 A4M       0.010000
      4 N1          -2.2630    -0.0020    -0.6300 nb         1 A4M      -0.835000
      5 C7           1.5860    -1.1930     4.1360 cy         1 A4M       0.096000
      6 N2          -1.7150     0.0090     1.6160 nb         1 A4M      -0.799000
      7 C9           3.2820     0.9060     6.9450 cd         1 A4M       0.255800
      8 C11          4.2110     2.2790     8.3980 cc         1 A4M      -0.136600
      9 C12          4.8860     2.8770     9.6050 c3         1 A4M       0.184100
     10 N3           1.3550     0.0000     0.0000 nd         1 A4M      -0.579100
     11 C13          7.5360     3.9000     9.9740 c3         1 A4M       0.119300
     12 C14          9.0080     4.0130     9.5710 c3         1 A4M       0.158800
     13 C15         11.0230     2.7350     9.1550 c3         1 A4M       0.174500
     14 N4           0.7340     0.0040     2.0930 na         1 A4M      -0.244000
     15 N5           2.1970    -0.2220     5.0640 nj         1 A4M      -0.516800
     16 C25          1.9470     0.8830     4.1140 cy         1 A4M       0.096000
     17 C3          -0.4150     0.0050     1.3420 ca         1 A4M       0.480800
     18 C1          -2.6060    -0.0020     0.6460 ca         1 A4M       0.751300
     19 C2          -4.0690     0.0030     1.0050 c3         1 A4M      -0.119400
     20 C           -0.9870    -0.0000    -1.0000 ca         1 A4M       0.794200
     21 N           -0.6390     0.0010    -2.3400 nv         1 A4M      -0.983500
     22 C24          3.8920     0.9760     8.2190 cd         1 A4M      -0.248300
     23 N7           3.8200     2.9420     7.2880 na         1 A4M       0.160400
     24 N6           3.2780     2.1290     6.4540 nc         1 A4M      -0.517800
     25 N8           6.8170     3.0950     8.9770 n3         1 A4M      -0.654600
     26 C23          7.3980     1.7490     8.8720 c3         1 A4M       0.119300
     27 C22          8.8700     1.8610     8.4700 c3         1 A4M       0.158800
     28 N9           9.5890     2.6670     9.4670 n3         1 A4M      -0.728600
     29 C21         11.7820     3.3660    10.3410 c3         1 A4M      -0.096400
     30 C20         13.2040     3.0600    10.3160 c3         1 A4M      -0.076900
     31 C19         13.9040     3.6130     9.0580 c3         1 A4M      -0.080900
     32 C18         13.6330     2.6780     7.9090 c3         1 A4M      -0.080900
     33 C17         12.4140     3.1100     7.0730 c3         1 A4M      -0.076900
     34 C16         11.2360     3.5950     7.9390 c3         1 A4M      -0.096400
     35 H1           2.8300    -0.0030     1.5200 h5         1 A4M       0.079800
     36 H2          -0.1340     0.1760     4.0550 h1         1 A4M       0.121700
     37 H3           0.9460    -1.9130     4.6330 h1         1 A4M       0.072950
     38 H4           2.2960    -1.6200     3.4380 h1         1 A4M       0.072950
     39 H5           5.0200     4.5960     6.8400 h1         1 A4M       0.063367
     40 H6           3.3580     4.6940     6.2440 h1         1 A4M       0.063367
     41 H7           3.6940     4.9170     7.9660 h1         1 A4M       0.063367
     42 H8           4.4920     3.8710     9.7830 h1         1 A4M       0.061700
     43 H9           4.6960     2.2540    10.4710 h1         1 A4M       0.061700
     44 H10          7.4630     3.4220    10.9430 h1         1 A4M       0.050950
     45 H11          7.0990     4.8900    10.0200 h1         1 A4M       0.050950
     46 H12          9.5440     4.5800    10.3220 h1         1 A4M       0.044200
     47 H13          9.0810     4.5120     8.6130 h1         1 A4M       0.044200
     48 H14         11.4080     1.7400     8.9670 h1         1 A4M       0.069700
     49 H15          2.7570     1.0310     3.4100 h1         1 A4M       0.072950
     50 H16          1.5900     1.7860     4.5950 h1         1 A4M       0.072950
     51 H17         -4.6580    -0.2060     0.1210 hc         1 A4M       0.059700
     52 H18         -4.3400     0.9740     1.3990 hc         1 A4M       0.059700
     53 H19         -4.2590    -0.7570     1.7540 hc         1 A4M       0.059700
     54 H20          0.3260     0.0100    -2.6060 hn         1 A4M       0.450300
     55 H21         -1.3520    -0.0010    -3.0420 hn         1 A4M       0.450300
     56 H22          3.8330     0.2230     8.9960 ha         1 A4M       0.176000
     57 H24          7.4200     1.2890     9.8530 h1         1 A4M       0.050950
     58 H25          6.7980     1.1490     8.1990 h1         1 A4M       0.050950
     59 H26          8.9430     2.3390     7.5010 h1         1 A4M       0.044200
     60 H27          9.3080     0.8710     8.4240 h1         1 A4M       0.044200
     61 H29         11.6560     4.4410    10.3030 hc         1 A4M       0.045950
     62 H30         11.3600     2.9910    11.2650 hc         1 A4M       0.045950
     63 H31         13.3300     1.9840    10.3410 hc         1 A4M       0.040200
     64 H32         13.6700     3.4920    11.1930 hc         1 A4M       0.040200
     65 H33         14.9710     3.6740     9.2330 hc         1 A4M       0.041700
     66 H34         13.5100     4.5960     8.8260 hc         1 A4M       0.041700
     67 H35         13.4530     1.6850     8.3030 hc         1 A4M       0.041700
     68 H36         14.5050     2.6540     7.2670 hc         1 A4M       0.041700
     69 H37         12.7130     3.9140     6.4120 hc         1 A4M       0.040200
     70 H38         12.0840     2.2670     6.4790 hc         1 A4M       0.040200
     71 H39         10.3330     3.5820     7.3400 hc         1 A4M       0.045950
     72 H40         11.4340     4.6110     8.2610 hc         1 A4M       0.045950
     73 C8           2.7550    -0.3070     6.2870 c          1 A4M       0.642600
     74 C10          3.9840     4.3810     7.0700 c3         1 A4M       0.051600
     75 O            2.8260    -1.3820     6.8500 o          1 A4M      -0.593100
@<TRIPOS>BOND
     1    32    33 1
     2    32    31 1
     3    33    34 1
     4    31    30 1
     5    34    13 1
     6    30    29 1
     7    13    29 1
     8    13    28 1
     9    27    28 1
    10    27    26 1
    11    28    12 1
    12    74    23 1
    13    12    11 1
    14    26    25 1
    15    25    11 1
    16    25     9 1
    17    23    24 1
    18    23     8 1
    19    24     7 2
    20     9     8 1
    21     8    22 2
    22     7    22 1
    23     7    73 1
    24    75    73 2
    25    73    15 1
    26    15     5 1
    27    15    16 1
    28     5     3 1
    29    16     3 1
    30     3    14 1
    31     2    14 1
    32     2    10 2
    33    14    17 1
    34    10     1 1
    35    17     1 ar
    36    17     6 ar
    37     1    20 ar
    38     6    18 ar
    39    20    21 1
    40    20     4 ar
    41    18     4 ar
    42    18    19 1
    43     2    35 1
    44     3    36 1
    45     5    37 1
    46     5    38 1
    47    74    39 1
    48    74    40 1
    49    74    41 1
    50     9    42 1
    51     9    43 1
    52    11    44 1
    53    11    45 1
    54    12    46 1
    55    12    47 1
    56    13    48 1
    57    16    49 1
    58    16    50 1
    59    19    51 1
    60    19    52 1
    61    19    53 1
    62    21    54 1
    63    21    55 1
    64    22    56 1
    65    26    57 1
    66    26    58 1
    67    27    59 1
    68    27    60 1
    69    29    61 1
    70    29    62 1
    71    30    63 1
    72    30    64 1
    73    31    65 1
    74    31    66 1
    75    32    67 1
    76    32    68 1
    77    33    69 1
    78    33    70 1
    79    34    71 1
    80    34    72 1
@<TRIPOS>SUBSTRUCTURE
     1 A4M         1 TEMP              0 ****  ****    0 ROOT
