@<TRIPOS>MOLECULE
molecule
   31    32     1     0     0
SMALL
bcc


@<TRIPOS>ATOM
      1 Cl           0.0000     0.0000     0.0000 cl         1 A4N      -0.043400
      2 C13          1.7360     0.0000     0.0000 ca         1 A4N       0.033400
      3 C12          2.4280     0.0000     1.1960 ca         1 A4N      -0.098000
      4 C10          3.8110     0.0000     1.1970 ca         1 A4N      -0.200300
      5 C11          4.5610    -0.0010     2.5040 c3         1 A4N       0.162100
      6 N            4.8050    -1.3860     2.9280 nz         1 A4N      -0.810600
      7 C9           4.5090     0.0000     0.0020 ca         1 A4N      -0.102000
      8 C8           3.8280     0.0010    -1.1980 ca         1 A4N      -0.100000
      9 C7           2.4350    -0.0050    -1.2070 cp         1 A4N       0.047000
     10 C6           1.6980    -0.0100    -2.4940 cp         1 A4N      -0.096000
     11 C1           0.9120     1.0820    -2.8550 ca         1 A4N      -0.044300
     12 C            0.8040     2.2710    -1.9360 c3         1 A4N      -0.061800
     13 C5           1.7930    -1.1070    -3.3490 ca         1 A4N      -0.100000
     14 C4           1.1050    -1.1080    -4.5450 ca         1 A4N      -0.129000
     15 C3           0.3220    -0.0220    -4.8960 ca         1 A4N      -0.095000
     16 C2           0.2330     1.0730    -4.0570 ca         1 A4N      -0.122000
     17 H1           1.8870    -0.0060     2.1340 ha         1 A4N       0.146000
     18 H2           5.5080     0.5100     2.3770 hx         1 A4N       0.112700
     19 H3           3.9730     0.5090     3.2580 hx         1 A4N       0.112700
     20 H4           5.2920    -1.3870     3.8020 hn         1 A4N       0.454800
     21 H5           5.3580    -1.8540     2.2370 hn         1 A4N       0.454800
     22 H7           5.5920     0.0030     0.0090 ha         1 A4N       0.138000
     23 H8           4.3760    -0.0000    -2.1330 ha         1 A4N       0.170000
     24 H9           1.7660     2.4580    -1.4730 hc         1 A4N       0.051033
     25 H10          0.0670     2.0680    -1.1680 hc         1 A4N       0.051033
     26 H11          0.5020     3.1410    -2.5060 hc         1 A4N       0.051033
     27 H12          2.4050    -1.9580    -3.0740 ha         1 A4N       0.129000
     28 H13          1.1740    -1.9610    -5.2090 ha         1 A4N       0.143000
     29 H14         -0.2140    -0.0260    -5.8370 ha         1 A4N       0.145000
     30 H15         -0.3800     1.9210    -4.3380 ha         1 A4N       0.146000
     31 HN3          3.9300    -1.8600     3.0380 hn         1 A4N       0.454800
@<TRIPOS>BOND
     1    16    15 ar
     2    16    11 ar
     3    12    11 1
     4    15    14 ar
     5    11    10 ar
     6    14    13 ar
     7    10    13 ar
     8    10     9 1
     9     1     2 1
    10     9     2 ar
    11     9     8 ar
    12     2     3 ar
    13     8     7 ar
    14     3     4 ar
    15     7     4 ar
    16     4     5 1
    17     6     5 1
    18     3    17 1
    19     5    18 1
    20     5    19 1
    21     6    20 1
    22     6    21 1
    23     7    22 1
    24     8    23 1
    25    12    24 1
    26    12    25 1
    27    12    26 1
    28    13    27 1
    29    14    28 1
    30    15    29 1
    31    16    30 1
    32    31     6 1
@<TRIPOS>SUBSTRUCTURE
     1 A4N         1 TEMP              0 ****  ****    0 ROOT
