@<TRIPOS>MOLECULE
A4N
   31    32     1     0     0
SMALL
bcc


@<TRIPOS>ATOM
      1 Cl           0.0000     0.0000     0.0000 cl         1 A4N       0.058600
      2 C13          1.7360     0.0000     0.0000 ca         1 A4N      -0.046600
      3 C12          2.4280     0.0000     1.1960 ca         1 A4N      -0.068000
      4 C10          3.8110     0.0000     1.1970 ca         1 A4N      -0.218300
      5 C11          4.5610    -0.0010     2.5040 c3         1 A4N       0.041100
      6 N            4.8050    -1.3860     2.9280 nz         1 A4N       0.073400
      7 C9           4.5090     0.0000     0.0020 ca         1 A4N      -0.069000
      8 C8           3.8280     0.0010    -1.1980 ca         1 A4N      -0.070000
      9 C7           2.4350    -0.0050    -1.2070 cp         1 A4N       0.062000
     10 C6           1.6980    -0.0100    -2.4940 cp         1 A4N      -0.103000
     11 C1           0.9120     1.0820    -2.8550 ca         1 A4N      -0.054300
     12 C            0.8040     2.2710    -1.9360 c3         1 A4N       0.034200
     13 C5           1.7930    -1.1070    -3.3490 ca         1 A4N      -0.072000
     14 C4           1.1050    -1.1080    -4.5450 ca         1 A4N      -0.100000
     15 C3           0.3220    -0.0220    -4.8960 ca         1 A4N      -0.065000
     16 C2           0.2330     1.0730    -4.0570 ca         1 A4N      -0.093000
     17 H1           1.8870    -0.0060     2.1340 ha         1 A4N       0.116000
     18 H2           5.5080     0.5100     2.3770 hx         1 A4N       0.081700
     19 H3           3.9730     0.5090     3.2580 hx         1 A4N       0.081700
     20 H4           5.2920    -1.3870     3.8020 hn         1 A4N       0.222800
     21 H5           5.3580    -1.8540     2.2370 hn         1 A4N       0.222800
     22 H7           5.5920     0.0030     0.0090 ha         1 A4N       0.109000
     23 H8           4.3760    -0.0000    -2.1330 ha         1 A4N       0.135000
     24 H9           1.7660     2.4580    -1.4730 hc         1 A4N       0.017367
     25 H10          0.0670     2.0680    -1.1680 hc         1 A4N       0.017367
     26 H11          0.5020     3.1410    -2.5060 hc         1 A4N       0.017367
     27 H12          2.4050    -1.9580    -3.0740 ha         1 A4N       0.102000
     28 H13          1.1740    -1.9610    -5.2090 ha         1 A4N       0.114000
     29 H14         -0.2140    -0.0260    -5.8370 ha         1 A4N       0.113000
     30 H15         -0.3800     1.9210    -4.3380 ha         1 A4N       0.118000
     31 HN3          3.9300    -1.8600     3.0380 hn         1 A4N       0.222800
@<TRIPOS>BOND
     1     1     2 1   
     2     2     3 ar  
     3     2     9 ar  
     4     3     4 ar  
     5     3    17 1   
     6     4     5 1   
     7     4     7 ar  
     8     5     6 1   
     9     5    18 1   
    10     5    19 1   
    11     6    20 1   
    12     6    21 1   
    13     6    31 1   
    14     7     8 ar  
    15     7    22 1   
    16     8     9 ar  
    17     8    23 1   
    18     9    10 1   
    19    10    11 ar  
    20    10    13 ar  
    21    11    12 1   
    22    11    16 ar  
    23    12    24 1   
    24    12    25 1   
    25    12    26 1   
    26    13    14 ar  
    27    13    27 1   
    28    14    15 ar  
    29    14    28 1   
    30    15    16 ar  
    31    15    29 1   
    32    16    30 1   
@<TRIPOS>SUBSTRUCTURE
     1 A4N         1 TEMP              0 ****  ****    0 ROOT
