@<TRIPOS>MOLECULE
molecule
   34    35     1     0     0
SMALL
bcc


@<TRIPOS>ATOM
      1 C7           0.0000     0.0000     0.0000 cp         1 A4Q      -0.093000
      2 C8          -0.7440     0.0010    -1.2830 cp         1 A4Q       0.051000
      3 C12         -2.8900     0.0020    -4.9820 c3         1 A4Q       0.162100
      4 C11         -2.1340     0.0010    -3.6790 ca         1 A4Q      -0.200300
      5 C10         -2.2170     1.0920    -2.8330 ca         1 A4Q      -0.101000
      6 C9          -1.5270     1.0980    -1.6380 ca         1 A4Q      -0.101000
      7 N           -4.2240    -0.5760    -4.7750 nz         1 A4Q      -0.810600
      8 C2           1.3930     0.0000     0.0000 ca         1 A4Q      -0.042300
      9 C3           2.0810     0.0000     1.1970 ca         1 A4Q      -0.120000
     10 C4           1.3890    -0.0000     2.3940 ca         1 A4Q      -0.096000
     11 C5           0.0070    -0.0000     2.4010 ca         1 A4Q      -0.128000
     12 C6          -0.6920     0.0060     1.2090 ca         1 A4Q      -0.101000
     13 C1           2.1490    -0.0010    -1.3040 c3         1 A4Q      -0.053100
     14 C            2.2960     1.4360    -1.8090 c3         1 A4Q      -0.090100
     15 Cl           0.3180    -2.4630    -1.7120 cl         1 A4Q      -0.041400
     16 C14         -0.6590    -1.0950    -2.1430 ca         1 A4Q       0.030400
     17 C13         -1.3550    -1.0880    -3.3360 ca         1 A4Q      -0.098000
     18 H1          -2.9900     1.0200    -5.3410 hx         1 A4Q       0.112700
     19 H2          -2.3510    -0.5870    -5.7130 hx         1 A4Q       0.112700
     20 H3          -2.8260     1.9450    -3.1100 ha         1 A4Q       0.138000
     21 H4          -1.5940     1.9540    -0.9770 ha         1 A4Q       0.170000
     22 H5          -4.7100    -0.6170    -5.6490 hn         1 A4Q       0.454467
     23 H6          -4.7390    -0.0060    -4.1330 hn         1 A4Q       0.454467
     24 H8           3.1640     0.0000     1.1990 ha         1 A4Q       0.146000
     25 H9           1.9330    -0.0020     3.3310 ha         1 A4Q       0.145000
     26 H10         -0.5300     0.0020     3.3420 ha         1 A4Q       0.143000
     27 H11         -1.7750     0.0050     1.2150 ha         1 A4Q       0.130000
     28 H12          3.1300    -0.4320    -1.1530 hc         1 A4Q       0.055200
     29 H13          1.6050    -0.5870    -2.0360 hc         1 A4Q       0.055200
     30 H14          1.9730     1.4910    -2.8420 hc         1 A4Q       0.039033
     31 H15          3.3340     1.7390    -1.7390 hc         1 A4Q       0.039033
     32 H16          1.6850     2.0960    -1.2040 hc         1 A4Q       0.039033
     33 H17         -1.2890    -1.9380    -4.0040 ha         1 A4Q       0.146000
     34 HN3         -4.1330    -1.5170    -4.4460 hn         1 A4Q       0.454467
@<TRIPOS>BOND
     1    14    13 1
     2    13     8 1
     3     9     8 ar
     4     9    10 ar
     5     8     1 ar
     6    10    11 ar
     7     6     5 ar
     8     6     2 ar
     9     5     4 ar
    10     1     2 1
    11     1    12 ar
    12     2    16 ar
    13    11    12 ar
    14     4     3 1
    15     4    17 ar
    16     3     7 1
    17    16    17 ar
    18    16    15 1
    19     3    18 1
    20     3    19 1
    21     5    20 1
    22     6    21 1
    23     7    22 1
    24     7    23 1
    25     9    24 1
    26    10    25 1
    27    11    26 1
    28    12    27 1
    29    13    28 1
    30    13    29 1
    31    14    30 1
    32    14    31 1
    33    14    32 1
    34    17    33 1
    35    34     7 1
@<TRIPOS>SUBSTRUCTURE
     1 A4Q         1 TEMP              0 ****  ****    0 ROOT
