@<TRIPOS>MOLECULE
A4R
   72    76     1     0     0
SMALL
bcc


@<TRIPOS>ATOM
      1 C1           0.0000     0.0000     0.0000 c3         1 A4R       0.013600
      2 C2           1.5070     0.0000     0.0000 cc         1 A4R       0.157800
      3 N3           2.2800     0.0000     1.0510 nd         1 A4R      -0.328000
      4 N4           3.5130    -0.0010     0.6830 nd         1 A4R      -0.325000
      5 C5           3.5810    -0.0020    -0.6200 cc         1 A4R       0.174800
      6 C6           4.8410    -0.0030    -1.4500 c3         1 A4R      -0.070000
      7 C7           5.6630     1.2460    -1.1280 c3         1 A4R       0.007900
      8 C8           5.6620    -1.2520    -1.1260 c3         1 A4R       0.007900
      9 N9           2.3100    -0.0060    -1.0910 na         1 A4R       0.158300
     10 C10          1.8900    -0.0090    -2.4950 c3         1 A4R      -0.077000
     11 C11          2.4310     1.2440    -3.1910 c3         1 A4R      -0.046900
     12 C12          2.1120     1.1570    -4.6910 c3         1 A4R       0.135000
     13 C13          0.6250     0.7590    -4.8360 c3         1 A4R      -0.063900
     14 C14          0.6270    -0.7840    -4.8330 c3         1 A4R      -0.063900
     15 C15          2.1150    -1.1780    -4.6880 c3         1 A4R       0.135000
     16 C16          2.4350    -1.2610    -3.1870 c3         1 A4R      -0.046900
     17 N17          2.8570    -0.0110    -5.2340 n3         1 A4R      -0.533600
     18 C18          2.8350    -0.0120    -6.7020 c3         1 A4R       0.143800
     19 C19          3.8090    -1.0700    -7.2260 c3         1 A4R      -0.047400
     20 C20          3.7860    -1.0720    -8.7560 c3         1 A4R       0.121000
     21 N21          2.4640    -1.4960    -9.2240 ns         1 A4R      -0.204900
     22 C22          2.0250    -1.1140   -10.4400 c          1 A4R       0.584100
     23 O23          2.7250    -0.4200   -11.1460 o          1 A4R      -0.636100
     24 C24          0.6660    -1.5500   -10.9220 c3         1 A4R      -0.124700
     25 C25         -0.4460    -0.9270   -10.0420 c3         1 A4R      -0.019900
     26 C26         -1.6780    -0.9520   -10.9820 c3         1 A4R      -0.024400
     27 C27         -1.1010    -0.6120   -12.3710 c3         1 A4R      -0.024400
     28 C28          0.3890    -0.9930   -12.3330 c3         1 A4R      -0.019900
     29 C29          4.8310    -2.0260    -9.2720 cc         1 A4R      -0.012400
     30 C30          6.0360    -1.6750    -9.7260 cd         1 A4R      -0.100000
     31 C31          6.8300    -2.7270   -10.1490 cd         1 A4R      -0.123000
     32 C32          6.2690    -3.9330   -10.0400 cc         1 A4R       0.016900
     33 S33          4.6530    -3.7740    -9.3640 ss         1 A4R      -0.293800
     34 H1          -0.3610    -0.8860    -0.5070 hc         1 A4R       0.012367
     35 H2          -0.3610     0.8830    -0.5140 hc         1 A4R       0.012367
     36 H3          -0.3610     0.0040     1.0210 hc         1 A4R       0.012367
     37 H4           4.5810    -0.0030    -2.5010 hc         1 A4R       0.043700
     38 H5           6.2110     1.0910    -0.2060 hc         1 A4R       0.009867
     39 H6           6.3610     1.4370    -1.9340 hc         1 A4R       0.009867
     40 H7           5.0010     2.0960    -1.0150 hc         1 A4R       0.009867
     41 H8           4.9980    -2.1010    -1.0120 hc         1 A4R       0.009867
     42 H9           6.2090    -1.0960    -0.2040 hc         1 A4R       0.009867
     43 H10          6.3600    -1.4450    -1.9320 hc         1 A4R       0.009867
     44 H11          0.8080    -0.0110    -2.5470 h1         1 A4R       0.064700
     45 H12          1.9610     2.1240    -2.7700 hc         1 A4R       0.041700
     46 H13          3.5030     1.3030    -3.0500 hc         1 A4R       0.041700
     47 H14          2.3450     2.0740    -5.2180 h1         1 A4R       0.051200
     48 H15          0.0510     1.1360    -3.9980 hc         1 A4R       0.026450
     49 H16          0.2230     1.1340    -5.7690 hc         1 A4R       0.026450
     50 H17          0.2260    -1.1630    -5.7660 hc         1 A4R       0.026450
     51 H18          0.0540    -1.1610    -3.9950 hc         1 A4R       0.026450
     52 H19          2.3500    -2.0970    -5.2120 h1         1 A4R       0.051200
     53 H20          3.5080    -1.3150    -3.0470 hc         1 A4R       0.041700
     54 H21          1.9680    -2.1420    -2.7640 hc         1 A4R       0.041700
     55 H23          1.8340    -0.2400    -7.0480 h1         1 A4R       0.018200
     56 H24          3.1300     0.9640    -7.0690 h1         1 A4R       0.018200
     57 H25          3.5130    -2.0460    -6.8600 hc         1 A4R       0.035700
     58 H26          4.8090    -0.8420    -6.8800 hc         1 A4R       0.035700
     59 H27          3.9960    -0.0740    -9.1210 h1         1 A4R       0.066700
     60 H28          1.9090    -2.1120    -8.6630 hn         1 A4R       0.179500
     61 H29          0.5860    -2.6300   -10.9220 hc         1 A4R       0.042700
     62 H30         -0.6240    -1.5350    -9.1630 hc         1 A4R       0.024700
     63 H31         -0.1930     0.0910    -9.7700 hc         1 A4R       0.024700
     64 H32         -2.1270    -1.9380   -10.9900 hc         1 A4R       0.014700
     65 H33         -2.3990    -0.2020   -10.6790 hc         1 A4R       0.014700
     66 H34         -1.2070     0.4480   -12.5660 hc         1 A4R       0.014700
     67 H35         -1.6110    -1.1880   -13.1340 hc         1 A4R       0.014700
     68 H36          0.5950    -1.7520   -13.0780 hc         1 A4R       0.024700
     69 H37          0.9990    -0.1150   -12.5110 hc         1 A4R       0.024700
     70 H38          6.3680    -0.6440    -9.7590 ha         1 A4R       0.125000
     71 H39          7.8290    -2.5820   -10.5410 ha         1 A4R       0.122000
     72 H40          6.7400    -4.8680   -10.3210 h4         1 A4R       0.149000
@<TRIPOS>BOND
     1     1     2 1   
     2     1    34 1   
     3     1    35 1   
     4     1    36 1   
     5     2     3 2   
     6     2     9 1   
     7     3     4 1   
     8     4     5 2   
     9     5     6 1   
    10     5     9 1   
    11     6     7 1   
    12     6     8 1   
    13     6    37 1   
    14     7    38 1   
    15     7    39 1   
    16     7    40 1   
    17     8    41 1   
    18     8    42 1   
    19     8    43 1   
    20     9    10 1   
    21    10    11 1   
    22    10    16 1   
    23    10    44 1   
    24    11    12 1   
    25    11    45 1   
    26    11    46 1   
    27    12    13 1   
    28    12    17 1   
    29    12    47 1   
    30    13    14 1   
    31    13    48 1   
    32    13    49 1   
    33    14    15 1   
    34    14    50 1   
    35    14    51 1   
    36    15    16 1   
    37    15    17 1   
    38    15    52 1   
    39    16    53 1   
    40    16    54 1   
    41    17    18 1   
    42    18    19 1   
    43    18    55 1   
    44    18    56 1   
    45    19    20 1   
    46    19    57 1   
    47    19    58 1   
    48    20    21 1   
    49    20    29 1   
    50    20    59 1   
    51    21    22 1   
    52    21    60 1   
    53    22    23 2   
    54    22    24 1   
    55    24    25 1   
    56    24    28 1   
    57    24    61 1   
    58    25    26 1   
    59    25    62 1   
    60    25    63 1   
    61    26    27 1   
    62    26    64 1   
    63    26    65 1   
    64    27    28 1   
    65    27    66 1   
    66    27    67 1   
    67    28    68 1   
    68    28    69 1   
    69    29    30 2   
    70    29    33 1   
    71    30    31 1   
    72    30    70 1   
    73    31    32 2   
    74    31    71 1   
    75    32    33 1   
    76    32    72 1   
@<TRIPOS>SUBSTRUCTURE
     1 A4R         1 TEMP              0 ****  ****    0 ROOT
