@<TRIPOS>MOLECULE
molecule
   72    76     1     0     0
SMALL
bcc


@<TRIPOS>ATOM
      1 C1           0.0000     0.0000     0.0000 c3         1 A4R      -0.103400
      2 C2           1.5070     0.0000     0.0000 cc         1 A4R       0.347800
      3 N3           2.2800     0.0000     1.0510 nd         1 A4R      -0.356000
      4 N4           3.5130    -0.0010     0.6830 nd         1 A4R      -0.355000
      5 C5           3.5810    -0.0020    -0.6200 cc         1 A4R       0.361800
      6 C6           4.8410    -0.0030    -1.4500 c3         1 A4R      -0.095000
      7 C7           5.6630     1.2460    -1.1280 c3         1 A4R      -0.083100
      8 C8           5.6620    -1.2520    -1.1260 c3         1 A4R      -0.083100
      9 N9           2.3100    -0.0060    -1.0910 na         1 A4R      -0.319700
     10 C10          1.8900    -0.0090    -2.4950 c3         1 A4R       0.050000
     11 C11          2.4310     1.2440    -3.1910 c3         1 A4R      -0.086900
     12 C12          2.1120     1.1570    -4.6910 c3         1 A4R       0.154000
     13 C13          0.6250     0.7590    -4.8360 c3         1 A4R      -0.119400
     14 C14          0.6270    -0.7840    -4.8330 c3         1 A4R      -0.119400
     15 C15          2.1150    -1.1780    -4.6880 c3         1 A4R       0.154000
     16 C16          2.4350    -1.2610    -3.1870 c3         1 A4R      -0.086900
     17 N17          2.8570    -0.0110    -5.2340 n3         1 A4R      -0.693600
     18 C18          2.8350    -0.0120    -6.7020 c3         1 A4R       0.147800
     19 C19          3.8090    -1.0700    -7.2260 c3         1 A4R      -0.089400
     20 C20          3.7860    -1.0720    -8.7560 c3         1 A4R       0.194000
     21 N21          2.4640    -1.4960    -9.2240 ns         1 A4R      -0.587900
     22 C22          2.0250    -1.1140   -10.4400 c          1 A4R       0.666100
     23 O23          2.7250    -0.4200   -11.1460 o          1 A4R      -0.599100
     24 C24          0.6660    -1.5500   -10.9220 c3         1 A4R      -0.151700
     25 C25         -0.4460    -0.9270   -10.0420 c3         1 A4R      -0.073400
     26 C26         -1.6780    -0.9520   -10.9820 c3         1 A4R      -0.084400
     27 C27         -1.1010    -0.6120   -12.3710 c3         1 A4R      -0.084400
     28 C28          0.3890    -0.9930   -12.3330 c3         1 A4R      -0.073400
     29 C29          4.8310    -2.0260    -9.2720 cc         1 A4R      -0.042400
     30 C30          6.0360    -1.6750    -9.7260 cd         1 A4R      -0.139000
     31 C31          6.8300    -2.7270   -10.1490 cd         1 A4R      -0.154000
     32 C32          6.2690    -3.9330   -10.0400 cc         1 A4R      -0.064100
     33 S33          4.6530    -3.7740    -9.3640 ss         1 A4R      -0.178800
     34 H1          -0.3610    -0.8860    -0.5070 hc         1 A4R       0.054367
     35 H2          -0.3610     0.8830    -0.5140 hc         1 A4R       0.054367
     36 H3          -0.3610     0.0040     1.0210 hc         1 A4R       0.054367
     37 H4           4.5810    -0.0030    -2.5010 hc         1 A4R       0.067700
     38 H5           6.2110     1.0910    -0.2060 hc         1 A4R       0.042867
     39 H6           6.3610     1.4370    -1.9340 hc         1 A4R       0.042867
     40 H7           5.0010     2.0960    -1.0150 hc         1 A4R       0.042867
     41 H8           4.9980    -2.1010    -1.0120 hc         1 A4R       0.042867
     42 H9           6.2090    -1.0960    -0.2040 hc         1 A4R       0.042867
     43 H10          6.3600    -1.4450    -1.9320 hc         1 A4R       0.042867
     44 H11          0.8080    -0.0110    -2.5470 h1         1 A4R       0.075700
     45 H12          1.9610     2.1240    -2.7700 hc         1 A4R       0.065950
     46 H13          3.5030     1.3030    -3.0500 hc         1 A4R       0.065950
     47 H14          2.3450     2.0740    -5.2180 h1         1 A4R       0.079700
     48 H15          0.0510     1.1360    -3.9980 hc         1 A4R       0.051200
     49 H16          0.2230     1.1340    -5.7690 hc         1 A4R       0.051200
     50 H17          0.2260    -1.1630    -5.7660 hc         1 A4R       0.051200
     51 H18          0.0540    -1.1610    -3.9950 hc         1 A4R       0.051200
     52 H19          2.3500    -2.0970    -5.2120 h1         1 A4R       0.079700
     53 H20          3.5080    -1.3150    -3.0470 hc         1 A4R       0.065950
     54 H21          1.9680    -2.1420    -2.7640 hc         1 A4R       0.065950
     55 H23          1.8340    -0.2400    -7.0480 h1         1 A4R       0.042200
     56 H24          3.1300     0.9640    -7.0690 h1         1 A4R       0.042200
     57 H25          3.5130    -2.0460    -6.8600 hc         1 A4R       0.061700
     58 H26          4.8090    -0.8420    -6.8800 hc         1 A4R       0.061700
     59 H27          3.9960    -0.0740    -9.1210 h1         1 A4R       0.094700
     60 H28          1.9090    -2.1120    -8.6630 hn         1 A4R       0.313500
     61 H29          0.5860    -2.6300   -10.9220 hc         1 A4R       0.069700
     62 H30         -0.6240    -1.5350    -9.1630 hc         1 A4R       0.054700
     63 H31         -0.1930     0.0910    -9.7700 hc         1 A4R       0.054700
     64 H32         -2.1270    -1.9380   -10.9900 hc         1 A4R       0.045200
     65 H33         -2.3990    -0.2020   -10.6790 hc         1 A4R       0.045200
     66 H34         -1.2070     0.4480   -12.5660 hc         1 A4R       0.045200
     67 H35         -1.6110    -1.1880   -13.1340 hc         1 A4R       0.045200
     68 H36          0.5950    -1.7520   -13.0780 hc         1 A4R       0.054700
     69 H37          0.9990    -0.1150   -12.5110 hc         1 A4R       0.054700
     70 H38          6.3680    -0.6440    -9.7590 ha         1 A4R       0.151000
     71 H39          7.8290    -2.5820   -10.5410 ha         1 A4R       0.149000
     72 H40          6.7400    -4.8680   -10.3210 h4         1 A4R       0.170000
@<TRIPOS>BOND
     1    32    31 2
     2    32    33 1
     3    31    30 1
     4    30    29 2
     5    33    29 1
     6     7     6 1
     7    29    20 1
     8     6     8 1
     9     6     5 1
    10    11    12 1
    11    11    10 1
    12    12    17 1
    13    12    13 1
    14    20    19 1
    15    20    21 1
    16    18    19 1
    17    18    17 1
    18     5     4 2
    19     5     9 1
    20    17    15 1
    21     4     3 1
    22    21    22 1
    23    13    14 1
    24     9    10 1
    25     9     2 1
    26    10    16 1
    27     3     2 2
    28    22    23 2
    29    22    24 1
    30    15    16 1
    31    15    14 1
    32     2     1 1
    33    24    28 1
    34    24    25 1
    35    28    27 1
    36    25    26 1
    37    27    26 1
    38     1    34 1
    39     1    35 1
    40     1    36 1
    41     6    37 1
    42     7    38 1
    43     7    39 1
    44     7    40 1
    45     8    41 1
    46     8    42 1
    47     8    43 1
    48    10    44 1
    49    11    45 1
    50    11    46 1
    51    12    47 1
    52    13    48 1
    53    13    49 1
    54    14    50 1
    55    14    51 1
    56    15    52 1
    57    16    53 1
    58    16    54 1
    59    18    55 1
    60    18    56 1
    61    19    57 1
    62    19    58 1
    63    20    59 1
    64    21    60 1
    65    24    61 1
    66    25    62 1
    67    25    63 1
    68    26    64 1
    69    26    65 1
    70    27    66 1
    71    27    67 1
    72    28    68 1
    73    28    69 1
    74    30    70 1
    75    31    71 1
    76    32    72 1
@<TRIPOS>SUBSTRUCTURE
     1 A4R         1 TEMP              0 ****  ****    0 ROOT
