@<TRIPOS>MOLECULE
molecule
   48    48     1     0     0
SMALL
bcc


@<TRIPOS>ATOM
      1 C01          0.0000     0.0000     0.0000 ca         1 A4S      -0.240000
      2 C02          1.3810     0.0000     0.0000 ca         1 A4S      -0.125000
      3 C03          2.0740     0.0000     1.1970 ca         1 A4S      -0.188000
      4 C04          1.3870     0.0000     2.3970 ca         1 A4S      -0.125000
      5 C05          0.0070     0.0000     2.4040 ca         1 A4S      -0.240000
      6 C06         -0.6920     0.0000     1.2040 ca         1 A4S       0.223600
      7 N07         -2.0890     0.0060     1.2080 nu         1 A4S      -0.821600
      8 C08         -2.8180     0.0060     2.4780 c3         1 A4S       0.284000
      9 C09         -4.3000     0.0130     2.2070 c2         1 A4S      -0.185400
     10 C10         -4.9680    -1.1150     2.1840 c2         1 A4S      -0.141200
     11 C11         -6.4180    -1.1240     1.7780 c3         1 A4S      -0.056200
     12 C12         -6.6230    -2.1230     0.6380 c3         1 A4S      -0.016200
     13 C13         -8.0740    -2.1320     0.2310 c2         1 A4S      -0.225400
     14 C14         -8.4800    -1.3870    -0.7660 c2         1 A4S      -0.096200
     15 C15         -9.9310    -1.3960    -1.1730 c3         1 A4S       0.247600
     16 O16        -10.3740    -0.0550    -1.3870 os         1 A4S      -0.595200
     17 P17        -11.8770     0.3120    -1.8320 p5         1 A4S       1.426800
     18 O18        -12.9000    -0.1000    -0.6590 o          1 A4S      -0.860500
     19 O19        -11.9850     1.8950    -2.1060 os         1 A4S      -0.713800
     20 O20        -12.2200    -0.4270    -3.0690 o          1 A4S      -0.860500
     21 P21        -13.0670     2.8320    -2.8450 p5         1 A4S       1.313900
     22 O22        -12.9290     2.6560    -4.4390 o          1 A4S      -0.892833
     23 O23        -14.4300     2.4390    -2.4210 o          1 A4S      -0.892833
     24 O24        -12.8050     4.3700    -2.4480 o          1 A4S      -0.892833
     25 C25         -9.0590    -2.9980     0.9740 c3         1 A4S      -0.035900
     26 C26         -5.0160     1.3170     1.9620 c3         1 A4S      -0.047900
     27 H1          -0.5420     0.0000    -0.9380 ha         1 A4S       0.120500
     28 H2           1.9220    -0.0000    -0.9390 ha         1 A4S       0.104000
     29 H3           3.1580     0.0000     1.1940 ha         1 A4S       0.099000
     30 H4           1.9330     0.0000     3.3320 ha         1 A4S       0.104000
     31 H5          -0.5300     0.0000     3.3450 ha         1 A4S       0.120500
     32 H6          -2.5920     0.0100     0.3430 hn         1 A4S       0.445800
     33 H7          -2.5590    -0.8810     3.0440 h1         1 A4S       0.030700
     34 H8          -2.5510     0.8880     3.0480 h1         1 A4S       0.030700
     35 H10         -4.4520    -2.0510     2.3610 ha         1 A4S       0.111000
     36 H12         -6.7070    -0.1340     1.4470 hc         1 A4S       0.063200
     37 H13         -7.0280    -1.4130     2.6260 hc         1 A4S       0.063200
     38 H14         -6.3350    -3.1130     0.9700 hc         1 A4S       0.025700
     39 H15         -6.0120    -1.8340    -0.2090 hc         1 A4S       0.025700
     40 H17         -7.7720    -0.7640    -1.2990 ha         1 A4S       0.118000
     41 H19        -10.5230    -1.8510    -0.3880 h1         1 A4S       0.030700
     42 H20        -10.0460    -1.9640    -2.0880 h1         1 A4S       0.030700
     43 H24         -9.7620    -2.3690     1.5070 hc         1 A4S       0.031700
     44 H25         -8.5290    -3.6250     1.6790 hc         1 A4S       0.031700
     45 H26         -9.5960    -3.6210     0.2690 hc         1 A4S       0.031700
     46 H27         -5.8870     1.3760     2.6030 hc         1 A4S       0.047033
     47 H28         -5.3260     1.3690     0.9250 hc         1 A4S       0.047033
     48 H29         -4.3490     2.1410     2.1820 hc         1 A4S       0.047033
@<TRIPOS>BOND
     1    20    17 1
     2    18    17 1
     3    17    16 1
     4    17    19 1
     5    23    21 1
     6    16    15 1
     7    22    21 1
     8    19    21 1
     9    21    24 1
    10    15    14 1
    11    25    13 1
    12     2     1 ar
    13     2     3 ar
    14    14    13 2
    15     1     6 ar
    16     3     4 ar
    17    13    12 1
    18     6     7 1
    19     6     5 ar
    20     4     5 ar
    21    12    11 1
    22     7     8 1
    23    11    10 1
    24    10     9 2
    25     8     9 1
    26     9    26 1
    27     1    27 1
    28     2    28 1
    29     3    29 1
    30     4    30 1
    31     5    31 1
    32     7    32 1
    33     8    33 1
    34     8    34 1
    35    10    35 1
    36    11    36 1
    37    11    37 1
    38    12    38 1
    39    12    39 1
    40    14    40 1
    41    15    41 1
    42    15    42 1
    43    25    43 1
    44    25    44 1
    45    25    45 1
    46    26    46 1
    47    26    47 1
    48    26    48 1
@<TRIPOS>SUBSTRUCTURE
     1 A4S         1 TEMP              0 ****  ****    0 ROOT
