@<TRIPOS>MOLECULE
molecule
   28    29     1     0     0
SMALL
bcc


@<TRIPOS>ATOM
      1 C1           0.0000     0.0000     0.0000 ca         1 A4T      -0.194300
      2 C2           1.3830     0.0000     0.0000 ca         1 A4T      -0.103000
      3 C3           2.0760     0.0000     1.1940 ca         1 A4T      -0.095000
      4 C4           1.3800     0.0010     2.4010 cp         1 A4T       0.039000
      5 C5           2.1190     0.0010     3.6870 cp         1 A4T      -0.129000
      6 C6           2.9090     1.0930     4.0390 ca         1 A4T      -0.080000
      7 C8           3.5000     0.0030     6.0890 ca         1 A4T      -0.075000
      8 C9           2.7130    -1.0830     5.7490 ca         1 A4T      -0.159000
      9 C11         -0.0140     0.0000     2.3950 ca         1 A4T       0.043400
     10 C12         -0.6970     0.0060     1.1940 ca         1 A4T      -0.099000
     11 Cl          -0.8910     0.0010     3.8940 cl         1 A4T      -0.041400
     12 C           -0.7500    -0.0010    -1.3080 c3         1 A4T       0.161100
     13 N           -0.9890     1.3840    -1.7350 nz         1 A4T      -0.810600
     14 C10          2.0220    -1.0900     4.5520 ca         1 A4T       0.164900
     15 F            1.2530    -2.1500     4.2200 f          1 A4T      -0.129900
     16 C7           3.5950     1.0880     5.2370 ca         1 A4T      -0.138000
     17 H1           1.9240    -0.0020    -0.9390 ha         1 A4T       0.138000
     18 H2           3.1590    -0.0000     1.1930 ha         1 A4T       0.169000
     19 H3           2.9850     1.9450     3.3740 ha         1 A4T       0.137000
     20 H4           4.0410     0.0050     7.0280 ha         1 A4T       0.152000
     21 H5           2.6410    -1.9300     6.4200 ha         1 A4T       0.161000
     22 H6          -1.7810     0.0060     1.1880 ha         1 A4T       0.148000
     23 H7          -0.1640    -0.5150    -2.0600 hx         1 A4T       0.113700
     24 H8          -1.6990    -0.5080    -1.1800 hx         1 A4T       0.113700
     25 H9          -1.6410     1.3910    -2.4940 hn         1 A4T       0.454800
     26 H10         -1.3620     1.9100    -0.9700 hn         1 A4T       0.454800
     27 H12          4.2110     1.9370     5.5100 ha         1 A4T       0.149000
     28 HN3         -0.1270     1.7930    -2.0370 hn         1 A4T       0.454800
@<TRIPOS>BOND
     1    15    14 1
     2     8    14 ar
     3     8     7 ar
     4    14     5 ar
     5     3     2 ar
     6     3     4 ar
     7     2     1 ar
     8     7    16 ar
     9     5     4 1
    10     5     6 ar
    11     4     9 ar
    12    16     6 ar
    13     1    12 1
    14     1    10 ar
    15    12    13 1
    16     9    10 ar
    17     9    11 1
    18     2    17 1
    19     3    18 1
    20     6    19 1
    21     7    20 1
    22     8    21 1
    23    10    22 1
    24    12    23 1
    25    12    24 1
    26    13    25 1
    27    13    26 1
    28    16    27 1
    29    28    13 1
@<TRIPOS>SUBSTRUCTURE
     1 A4T         1 TEMP              0 ****  ****    0 ROOT
