@<TRIPOS>MOLECULE
A4T
   28    29     1     0     0
SMALL
bcc


@<TRIPOS>ATOM
      1 C1           0.0000     0.0000     0.0000 ca         1 A4T      -0.211300
      2 C2           1.3830     0.0000     0.0000 ca         1 A4T      -0.072000
      3 C3           2.0760     0.0000     1.1940 ca         1 A4T      -0.063000
      4 C4           1.3800     0.0010     2.4010 cp         1 A4T       0.050000
      5 C5           2.1190     0.0010     3.6870 cp         1 A4T      -0.124000
      6 C6           2.9090     1.0930     4.0390 ca         1 A4T      -0.054000
      7 C8           3.5000     0.0030     6.0890 ca         1 A4T      -0.044000
      8 C9           2.7130    -1.0830     5.7490 ca         1 A4T      -0.121000
      9 C11         -0.0140     0.0000     2.3950 ca         1 A4T      -0.035600
     10 C12         -0.6970     0.0060     1.1940 ca         1 A4T      -0.068000
     11 Cl          -0.8910     0.0010     3.8940 cl         1 A4T       0.058600
     12 C           -0.7500    -0.0010    -1.3080 c3         1 A4T       0.040100
     13 N           -0.9890     1.3840    -1.7350 nz         1 A4T       0.073400
     14 C10          2.0220    -1.0900     4.5520 ca         1 A4T       0.132900
     15 F            1.2530    -2.1500     4.2200 f          1 A4T      -0.123900
     16 C7           3.5950     1.0880     5.2370 ca         1 A4T      -0.105000
     17 H1           1.9240    -0.0020    -0.9390 ha         1 A4T       0.109000
     18 H2           3.1590    -0.0000     1.1930 ha         1 A4T       0.133000
     19 H3           2.9850     1.9450     3.3740 ha         1 A4T       0.107000
     20 H4           4.0410     0.0050     7.0280 ha         1 A4T       0.118000
     21 H5           2.6410    -1.9300     6.4200 ha         1 A4T       0.131000
     22 H6          -1.7810     0.0060     1.1880 ha         1 A4T       0.118000
     23 H7          -0.1640    -0.5150    -2.0600 hx         1 A4T       0.082700
     24 H8          -1.6990    -0.5080    -1.1800 hx         1 A4T       0.082700
     25 H9          -1.6410     1.3910    -2.4940 hn         1 A4T       0.222467
     26 H10         -1.3620     1.9100    -0.9700 hn         1 A4T       0.222467
     27 H12          4.2110     1.9370     5.5100 ha         1 A4T       0.118000
     28 HN3         -0.1270     1.7930    -2.0370 hn         1 A4T       0.222467
@<TRIPOS>BOND
     1     1     2 ar  
     2     1    10 ar  
     3     1    12 1   
     4     2     3 ar  
     5     2    17 1   
     6     3     4 ar  
     7     3    18 1   
     8     4     5 1   
     9     4     9 ar  
    10     5     6 ar  
    11     5    14 ar  
    12     6    16 ar  
    13     6    19 1   
    14     7     8 ar  
    15     7    16 ar  
    16     7    20 1   
    17     8    14 ar  
    18     8    21 1   
    19     9    10 ar  
    20     9    11 1   
    21    10    22 1   
    22    12    13 1   
    23    12    23 1   
    24    12    24 1   
    25    13    25 1   
    26    13    26 1   
    27    13    28 1   
    28    14    15 1   
    29    16    27 1   
@<TRIPOS>SUBSTRUCTURE
     1 A4T         1 TEMP              0 ****  ****    0 ROOT
