@<TRIPOS>MOLECULE
A4V
   29    31     1     0     0
SMALL
bcc


@<TRIPOS>ATOM
      1 N1           0.0000     0.0000     0.0000 na         1 A4V       0.265500
      2 C1           1.3630     0.0000     0.0000 cc         1 A4V       0.302700
      3 N2           1.8080     0.0000     1.2230 nd         1 A4V      -0.427100
      4 C2           0.7620    -0.0000     2.0830 cd         1 A4V      -0.059900
      5 C3           0.6320    -0.0000     3.4820 cc         1 A4V       0.686200
      6 N3           1.7510    -0.0000     4.2970 nv         1 A4V      -0.639500
      7 N4          -0.5890    -0.0000     4.0060 nc         1 A4V      -0.589000
      8 C4          -1.6630    -0.0010     3.2360 cd         1 A4V       0.377400
      9 N5          -1.5900     0.0000     1.9220 na         1 A4V       0.468100
     10 C5          -0.4100     0.0000     1.3090 cd         1 A4V      -0.390300
     11 C6          -3.9850    -2.1700     1.5800 ca         1 A4V      -0.080000
     12 C7          -4.3090    -3.4690     1.2350 ca         1 A4V      -0.074500
     13 C8          -3.8210    -4.0150     0.0630 ca         1 A4V      -0.049000
     14 C9          -3.0060    -3.2630    -0.7640 ca         1 A4V      -0.074500
     15 C10         -2.6820    -1.9650    -0.4180 ca         1 A4V      -0.080000
     16 C11         -3.1760    -1.4160     0.7510 ca         1 A4V      -0.185300
     17 C12         -2.8210    -0.0000     1.1280 c3         1 A4V      -0.036400
     18 H1           1.9840     0.0000    -0.8870 h5         1 A4V       0.061800
     19 H2           2.1460     0.8670     4.6040 hn         1 A4V       0.314800
     20 H3           2.1470    -0.8670     4.6040 hn         1 A4V       0.314800
     21 H4          -2.6400    -0.0010     3.7050 h5         1 A4V       0.041100
     22 H6          -4.9450    -4.0580     1.8840 ha         1 A4V       0.123000
     23 H7          -4.0750    -5.0330    -0.2070 ha         1 A4V       0.123000
     24 H8          -2.6220    -3.6920    -1.6810 ha         1 A4V       0.123000
     25 H9          -2.0460    -1.3750    -1.0670 ha         1 A4V       0.098000
     26 H10         -2.6720     0.5860     0.2290 h1         1 A4V       0.064200
     27 H11         -3.6270     0.4310     1.7100 h1         1 A4V       0.064200
     28 H12         -0.5920     0.0000    -0.8070 hn         1 A4V       0.159700
     29 H5          -4.3690    -1.7410     2.4970 ha         1 A4V       0.098000
@<TRIPOS>BOND
     1     1     2 1   
     2     1    10 2   
     3     1    28 1   
     4     2     3 2   
     5     2    18 1   
     6     3     4 1   
     7     4     5 2   
     8     4    10 1   
     9     5     6 1   
    10     5     7 1   
    11     6    19 1   
    12     6    20 1   
    13     7     8 2   
    14     8     9 1   
    15     8    21 1   
    16     9    10 1   
    17     9    17 1   
    18    11    12 ar  
    19    11    16 ar  
    20    11    29 1   
    21    12    13 ar  
    22    12    22 1   
    23    13    14 ar  
    24    13    23 1   
    25    14    15 ar  
    26    14    24 1   
    27    15    16 ar  
    28    15    25 1   
    29    16    17 1   
    30    17    26 1   
    31    17    27 1   
@<TRIPOS>SUBSTRUCTURE
     1 A4V         1 TEMP              0 ****  ****    0 ROOT
