@<TRIPOS>MOLECULE
molecule
   29    31     1     0     0
SMALL
bcc


@<TRIPOS>ATOM
      1 N1           0.0000     0.0000     0.0000 na         1 A4V      -0.284500
      2 C1           1.3630     0.0000     0.0000 cc         1 A4V       0.480700
      3 N2           1.8080     0.0000     1.2230 nd         1 A4V      -0.528100
      4 C2           0.7620    -0.0000     2.0830 cd         1 A4V      -0.046900
      5 C3           0.6320    -0.0000     3.4820 cc         1 A4V       0.871200
      6 N3           1.7510    -0.0000     4.2970 nv         1 A4V      -1.066500
      7 N4          -0.5890    -0.0000     4.0060 nc         1 A4V      -0.714000
      8 C4          -1.6630    -0.0010     3.2360 cd         1 A4V       0.605400
      9 N5          -1.5900     0.0000     1.9220 na         1 A4V      -0.105900
     10 C5          -0.4100     0.0000     1.3090 cd         1 A4V       0.004700
     11 C6          -3.9850    -2.1700     1.5800 ca         1 A4V      -0.106000
     12 C7          -4.3090    -3.4690     1.2350 ca         1 A4V      -0.109000
     13 C8          -3.8210    -4.0150     0.0630 ca         1 A4V      -0.083000
     14 C9          -3.0060    -3.2630    -0.7640 ca         1 A4V      -0.109000
     15 C10         -2.6820    -1.9650    -0.4180 ca         1 A4V      -0.106000
     16 C11         -3.1760    -1.4160     0.7510 ca         1 A4V      -0.167300
     17 C12         -2.8210    -0.0000     1.1280 c3         1 A4V       0.046600
     18 H1           1.9840     0.0000    -0.8870 h5         1 A4V       0.119800
     19 H2           2.1460     0.8670     4.6040 hn         1 A4V       0.479300
     20 H3           2.1470    -0.8670     4.6040 hn         1 A4V       0.479300
     21 H4          -2.6400    -0.0010     3.7050 h5         1 A4V       0.099100
     22 H6          -4.9450    -4.0580     1.8840 ha         1 A4V       0.155000
     23 H7          -4.0750    -5.0330    -0.2070 ha         1 A4V       0.158000
     24 H8          -2.6220    -3.6920    -1.6810 ha         1 A4V       0.155000
     25 H9          -2.0460    -1.3750    -1.0670 ha         1 A4V       0.122000
     26 H10         -2.6720     0.5860     0.2290 h1         1 A4V       0.095700
     27 H11         -3.6270     0.4310     1.7100 h1         1 A4V       0.095700
     28 H12         -0.5920     0.0000    -0.8070 hn         1 A4V       0.335700
     29 H5          -4.3690    -1.7410     2.4970 ha         1 A4V       0.122000
@<TRIPOS>BOND
     1     2     1 1
     2     2     3 2
     3     1    10 2
     4     3     4 1
     5    17     9 1
     6    17    16 1
     7    10     4 1
     8    10     9 1
     9     4     5 2
    10     9     8 1
    11     5     6 1
    12     5     7 1
    13    16    11 ar
    14    16    15 ar
    15     8     7 2
    16    11    12 ar
    17    15    14 ar
    18    12    13 ar
    19    14    13 ar
    20     2    18 1
    21     6    19 1
    22     6    20 1
    23     8    21 1
    24    11    29 1
    25    12    22 1
    26    13    23 1
    27    14    24 1
    28    15    25 1
    29    17    26 1
    30    17    27 1
    31     1    28 1
@<TRIPOS>SUBSTRUCTURE
     1 A4V         1 TEMP              0 ****  ****    0 ROOT
