@<TRIPOS>MOLECULE
A4W
   23    23     1     0     0
SMALL
bcc


@<TRIPOS>ATOM
      1 C10          0.0000     0.0000     0.0000 ca         1 A4W      -0.100000
      2 C13          1.3820     0.0100     2.4010 ca         1 A4W      -0.054600
      3 F01          3.4300    -0.0100     1.2110 f          1 A4W      -0.121900
      4 C02          2.0790     0.0000     1.2060 ca         1 A4W       0.069900
      5 C03          1.3870     0.0000     0.0000 ca         1 A4W      -0.104400
      6 N04          2.0890     0.0000    -1.2120 ns         1 A4W      -0.018100
      7 C05          1.5100     0.4910    -2.3260 c          1 A4W       0.563100
      8 C06          2.2150     0.3780    -3.6530 c3         1 A4W      -0.077400
      9 C07          1.3480     1.0070    -4.7460 c3         1 A4W       0.116700
     10 S08          2.1960     0.8720    -6.3430 sh         1 A4W      -0.417900
     11 O09          0.4220     1.0210    -2.2600 o          1 A4W      -0.635100
     12 C11         -0.6910     0.0050     1.1970 ca         1 A4W      -0.077000
     13 C12         -0.0020     0.0100     2.3950 ca         1 A4W      -0.094000
     14 Cl1          2.2430     0.0100     3.9090 cl         1 A4W       0.005600
     15 H1          -0.5420    -0.0020    -0.9380 ha         1 A4W       0.160000
     16 H2           3.0100    -0.3880    -1.2560 hn         1 A4W       0.177500
     17 H3           2.3860    -0.6660    -3.8840 hc         1 A4W       0.045200
     18 H4           3.1650     0.8970    -3.6030 hc         1 A4W       0.045200
     19 H5           0.3980     0.4880    -4.7960 h1         1 A4W       0.046200
     20 H6           1.1770     2.0520    -4.5150 h1         1 A4W       0.046200
     21 H7           1.4440     1.4180    -7.2910 hs         1 A4W       0.194800
     22 H8          -1.7740     0.0050     1.1960 ha         1 A4W       0.112000
     23 H9          -0.5460     0.0150     3.3320 ha         1 A4W       0.119000
@<TRIPOS>BOND
     1     1     5 ar  
     2     1    12 ar  
     3     1    15 1   
     4     2     4 ar  
     5     2    13 ar  
     6     2    14 1   
     7     3     4 1   
     8     4     5 ar  
     9     5     6 1   
    10     6     7 1   
    11     6    16 1   
    12     7     8 1   
    13     7    11 2   
    14     8     9 1   
    15     8    17 1   
    16     8    18 1   
    17     9    10 1   
    18     9    19 1   
    19     9    20 1   
    20    10    21 1   
    21    12    13 ar  
    22    12    22 1   
    23    13    23 1   
@<TRIPOS>SUBSTRUCTURE
     1 A4W         1 TEMP              0 ****  ****    0 ROOT
