@<TRIPOS>MOLECULE
molecule
   23    23     1     0     0
SMALL
bcc


@<TRIPOS>ATOM
      1 C10          0.0000     0.0000     0.0000 ca         1 A4W      -0.117000
      2 C13          1.3820     0.0100     2.4010 ca         1 A4W       0.005400
      3 F01          3.4300    -0.0100     1.2110 f          1 A4W      -0.132900
      4 C02          2.0790     0.0000     1.2060 ca         1 A4W       0.098900
      5 C03          1.3870     0.0000     0.0000 ca         1 A4W       0.033600
      6 N04          2.0890     0.0000    -1.2120 ns         1 A4W      -0.468100
      7 C05          1.5100     0.4910    -2.3260 c          1 A4W       0.665100
      8 C06          2.2150     0.3780    -3.6530 c3         1 A4W      -0.141400
      9 C07          1.3480     1.0070    -4.7460 c3         1 A4W       0.056700
     10 S08          2.1960     0.8720    -6.3430 sh         1 A4W      -0.437900
     11 O09          0.4220     1.0210    -2.2600 o          1 A4W      -0.596100
     12 C11         -0.6910     0.0050     1.1970 ca         1 A4W      -0.114000
     13 C12         -0.0020     0.0100     2.3950 ca         1 A4W      -0.119000
     14 Cl1          2.2430     0.0100     3.9090 cl         1 A4W      -0.083400
     15 H1          -0.5420    -0.0020    -0.9380 ha         1 A4W       0.181000
     16 H2           3.0100    -0.3880    -1.2560 hn         1 A4W       0.336500
     17 H3           2.3860    -0.6660    -3.8840 hc         1 A4W       0.079700
     18 H4           3.1650     0.8970    -3.6030 hc         1 A4W       0.079700
     19 H5           0.3980     0.4880    -4.7960 h1         1 A4W       0.073700
     20 H6           1.1770     2.0520    -4.5150 h1         1 A4W       0.073700
     21 H7           1.4440     1.4180    -7.2910 hs         1 A4W       0.229800
     22 H8          -1.7740     0.0050     1.1960 ha         1 A4W       0.146000
     23 H9          -0.5460     0.0150     3.3320 ha         1 A4W       0.150000
@<TRIPOS>BOND
     1    12    13 ar
     2    12     1 ar
     3    13     2 ar
     4     1     5 ar
     5     2     4 ar
     6     2    14 1
     7     5     4 ar
     8     5     6 1
     9     4     3 1
    10     6     7 1
    11     7     8 1
    12     7    11 2
    13     8     9 1
    14     9    10 1
    15     1    15 1
    16     6    16 1
    17     8    17 1
    18     8    18 1
    19     9    19 1
    20     9    20 1
    21    10    21 1
    22    12    22 1
    23    13    23 1
@<TRIPOS>SUBSTRUCTURE
     1 A4W         1 TEMP              0 ****  ****    0 ROOT
