@<TRIPOS>MOLECULE
molecule
   75    79     1     0     0
SMALL
bcc


@<TRIPOS>ATOM
      1 C4           0.0000     0.0000     0.0000 cc         1 A4X       0.360800
      2 C14          3.1430    -0.0010     1.8240 c3         1 A4X      -0.103400
      3 C5           1.9670     1.2500    -2.0120 c3         1 A4X      -0.086900
      4 C6           1.9660    -1.2540    -2.0100 c3         1 A4X      -0.086900
      5 C11         -0.8950    -0.0010    -1.2130 c3         1 A4X      -0.096000
      6 C7           1.7300     0.0000     1.3010 cc         1 A4X       0.345800
      7 C8           4.2320     0.7680    -2.9280 c3         1 A4X      -0.119400
      8 C9           4.2330    -0.7750    -2.9270 c3         1 A4X      -0.119400
      9 C12          2.0780     1.0540    -6.2750 c3         1 A4X      -0.087400
     10 C13          2.6290     1.0520    -7.7030 c3         1 A4X       0.177000
     11 N1           1.3540     0.0000     0.0000 na         1 A4X      -0.316700
     12 N2           2.2780    -0.0040    -4.0760 n3         1 A4X      -0.692600
     13 C3           2.7870    -1.1700    -3.3060 c3         1 A4X       0.153500
     14 N3          -0.3880     0.0060     1.2470 nd         1 A4X      -0.354000
     15 C21          7.6280     0.7360    -9.4420 c3         1 A4X      -0.078400
     16 C23          9.0950     1.1570    -9.3390 c3         1 A4X      -0.121900
     17 C18          9.1930     2.6830    -9.3790 c3         1 A4X       0.401600
     18 F1           8.6570     3.1530   -10.5840 f          1 A4X      -0.236800
     19 F2          10.5350     3.0670    -9.2850 f          1 A4X      -0.236800
     20 C24          8.4090     3.2750    -8.2070 c3         1 A4X      -0.121900
     21 C22          6.9420     2.8560    -8.3100 c3         1 A4X      -0.078400
     22 C17          6.8440     1.3290    -8.2690 c3         1 A4X      -0.118700
     23 O1           4.5160     0.5800    -9.7160 o          1 A4X      -0.559100
     24 N5           4.0330     1.4740    -7.6840 ns         1 A4X      -0.572900
     25 C15          1.8290     2.0060    -8.5510 cc         1 A4X      -0.129300
     26 C25          0.8290     1.5820    -9.4090 cc         1 A4X      -0.142000
     27 C27          0.2190     2.5550   -10.0860 cd         1 A4X      -0.065100
     28 S1           0.9170     4.1080    -9.6450 ss         1 A4X      -0.160800
     29 C26          2.0280     3.3250    -8.5280 cd         1 A4X      -0.060100
     30 C2           2.7870     1.1650    -3.3080 c3         1 A4X       0.153500
     31 C1           2.2350    -0.0020    -1.1710 c3         1 A4X       0.050000
     32 N4           0.6390     0.0040     2.0190 nd         1 A4X      -0.355000
     33 C20         -1.7780    -1.2490    -1.1960 c3         1 A4X      -0.083100
     34 C19         -1.7780     1.2480    -1.1970 c3         1 A4X      -0.083100
     35 H1           3.6590     0.8840     1.4710 hc         1 A4X       0.054700
     36 H2           3.1270    -0.0030     2.9070 hc         1 A4X       0.054700
     37 H3           3.6590    -0.8850     1.4680 hc         1 A4X       0.054700
     38 H4           2.2600     2.1320    -1.4550 hc         1 A4X       0.066450
     39 H5           0.9120     1.3070    -2.2530 hc         1 A4X       0.066450
     40 H6           2.2600    -2.1350    -1.4510 hc         1 A4X       0.066450
     41 H7           0.9120    -1.3110    -2.2510 hc         1 A4X       0.066450
     42 H8          -0.2870    -0.0010    -2.1100 hc         1 A4X       0.066700
     43 H9           4.4800     1.1460    -1.9430 hc         1 A4X       0.050950
     44 H10          4.9320     1.1450    -3.6640 hc         1 A4X       0.050950
     45 H11          4.9320    -1.1520    -3.6630 hc         1 A4X       0.050950
     46 H12          4.4810    -1.1510    -1.9420 hc         1 A4X       0.050950
     47 H13          2.6550    -0.9810    -5.8910 h1         1 A4X       0.040700
     48 H14          3.8670     0.2200    -5.4240 h1         1 A4X       0.040700
     49 H15          1.0190     0.8280    -6.2970 hc         1 A4X       0.062200
     50 H16          2.2310     2.0290    -5.8300 hc         1 A4X       0.062200
     51 H17          2.5570     0.0540    -8.1170 h1         1 A4X       0.080700
     52 H19          2.7490    -2.0890    -3.8790 h1         1 A4X       0.079200
     53 H21          7.2130     1.1020   -10.3740 hc         1 A4X       0.063700
     54 H22          9.6490     0.7390   -10.1710 hc         1 A4X       0.066950
     55 H23          9.5090     0.7950    -8.4050 hc         1 A4X       0.066950
     56 H24          8.4770     4.3560    -8.2380 hc         1 A4X       0.066950
     57 H25          8.8230     2.9090    -7.2750 hc         1 A4X       0.066950
     58 H26          6.3890     3.2740    -7.4780 hc         1 A4X       0.063700
     59 H27          6.5300     3.2180    -9.2440 hc         1 A4X       0.063700
     60 H28          7.1140     0.8100    -7.3580 hc         1 A4X       0.067700
     61 H29          4.3820     2.0140    -6.9170 hn         1 A4X       0.317500
     62 H30          0.5620     0.5380    -9.5210 ha         1 A4X       0.151000
     63 H31         -0.5830     2.4110   -10.8000 h4         1 A4X       0.173000
     64 H33          2.7640     3.8360    -7.9190 h4         1 A4X       0.165000
     65 H35          2.7500     2.0820    -3.8830 h1         1 A4X       0.079200
     66 H36          3.2680    -0.0020    -0.8440 h1         1 A4X       0.075700
     67 H37         -1.2040    -2.0930    -0.8320 hc         1 A4X       0.043033
     68 H38         -2.6270    -1.0820    -0.5450 hc         1 A4X       0.043033
     69 H39         -2.1280    -1.4580    -2.2000 hc         1 A4X       0.043033
     70 H40         -2.1330     1.4520    -2.1990 hc         1 A4X       0.043033
     71 H41         -2.6230     1.0840    -0.5400 hc         1 A4X       0.043033
     72 H42         -1.2010     2.0930    -0.8390 hc         1 A4X       0.043033
     73 C10          2.8080    -0.0050    -5.4460 c3         1 A4X       0.146800
     74 C16          4.8650     1.0900    -8.6730 c          1 A4X       0.604100
     75 H20          7.5610    -0.3440    -9.4100 hc         1 A4X       0.063700
@<TRIPOS>BOND
     1     1     5 1
     2     1    11 1
     3     1    14 2
     4     2     6 1
     5     3    30 1
     6     3    31 1
     7     4    13 1
     8     4    31 1
     9     5    33 1
    10     5    34 1
    11     6    11 1
    12     6    32 2
    13     7     8 1
    14     7    30 1
    15     8    13 1
    16    73     9 1
    17    73    12 1
    18     9    10 1
    19    10    24 1
    20    10    25 1
    21    11    31 1
    22    12    13 1
    23    12    30 1
    24    14    32 1
    25    15    16 1
    26    15    22 1
    27    16    17 1
    28    17    18 1
    29    17    19 1
    30    17    20 1
    31    20    21 1
    32    21    22 1
    33    22    74 1
    34    74    23 2
    35    74    24 1
    36    25    26 1
    37    25    29 2
    38    26    27 2
    39    27    28 1
    40    28    29 1
    41     2    35 1
    42     2    36 1
    43     2    37 1
    44     3    38 1
    45     3    39 1
    46     4    40 1
    47     4    41 1
    48     5    42 1
    49     7    43 1
    50     7    44 1
    51     8    45 1
    52     8    46 1
    53    73    47 1
    54    73    48 1
    55     9    49 1
    56     9    50 1
    57    10    51 1
    58    13    52 1
    59    15    75 1
    60    15    53 1
    61    16    54 1
    62    16    55 1
    63    20    56 1
    64    20    57 1
    65    21    58 1
    66    21    59 1
    67    22    60 1
    68    24    61 1
    69    26    62 1
    70    27    63 1
    71    29    64 1
    72    30    65 1
    73    31    66 1
    74    33    67 1
    75    33    68 1
    76    33    69 1
    77    34    70 1
    78    34    71 1
    79    34    72 1
@<TRIPOS>SUBSTRUCTURE
     1 A4X         1 TEMP              0 ****  ****    0 ROOT
