@<TRIPOS>MOLECULE
molecule
   59    61     1     0     0
SMALL
bcc


@<TRIPOS>ATOM
      1 C10          0.0000     0.0000     0.0000 c3         1 A4Y       0.231400
      2 C13         -2.5830     0.1250     2.8810 c3         1 A4Y       0.157500
      3 C17         -2.4390    -1.8560     5.3030 ca         1 A4Y      -0.396900
      4 C20         -0.3500    -3.1160     6.4030 ca         1 A4Y       0.684300
      5 C21          0.8310    -3.8040     7.0370 c3         1 A4Y      -0.113400
      6 C26         -4.1290    -3.3260     2.6110 c3         1 A4Y       0.217800
      7 C28         -3.5120    -4.6650     2.9790 c3         1 A4Y       0.054800
      8 O01          1.2190     0.5820    -2.5250 o          1 A4Y      -0.847500
      9 O03          3.3770    -0.7030    -1.9010 os         1 A4Y      -0.719800
     10 P04          4.3370    -0.4950    -3.2380 p5         1 A4Y       1.372900
     11 O05          3.6980     0.5130    -4.1640 o          1 A4Y      -0.968500
     12 O06          5.6960     0.0060    -2.8080 o          1 A4Y      -0.968500
     13 O07          4.4910    -1.8140    -3.9580 o          1 A4Y      -0.968500
     14 O08          2.8890     1.7100    -1.1010 o          1 A4Y      -0.847500
     15 O09          1.4290     0.0000     0.0000 os         1 A4Y      -0.586200
     16 C11         -0.5100     0.0000     1.4430 c3         1 A4Y      -0.263400
     17 C12         -2.0400    -0.0000     1.4430 c3         1 A4Y       0.193400
     18 N15         -3.4460    -0.9900     3.2520 n3         1 A4Y      -0.770600
     19 C16         -3.6160    -1.1550     4.6880 c3         1 A4Y       0.241100
     20 C18         -2.2020    -1.7730     6.6610 ca         1 A4Y       0.438200
     21 N19         -1.1560    -2.4100     7.1700 nb         1 A4Y      -0.813000
     22 N22         -0.5390    -3.2190     5.1020 nb         1 A4Y      -0.749000
     23 C23         -1.5640    -2.6050     4.5210 ca         1 A4Y       0.762200
     24 N24         -1.7710    -2.7030     3.1690 nu         1 A4Y      -0.818900
     25 C25         -3.0400    -2.2510     2.5790 c3         1 A4Y       0.570500
     26 C29         -2.5680    -5.1200     1.8610 c3         1 A4Y      -0.096100
     27 C30         -4.6220    -5.7040     3.1600 c          1 A4Y       0.868600
     28 O31         -4.5670    -6.8010     2.5360 o          1 A4Y      -0.848300
     29 O32         -5.5470    -5.4990     3.9940 o          1 A4Y      -0.848300
     30 O33         -2.7920    -4.5350     4.1770 oh         1 A4Y      -0.590800
     31 O34         -5.1010    -2.9810     3.5690 oh         1 A4Y      -0.568800
     32 S35         -2.6870    -1.6250     0.8800 ss         1 A4Y      -0.378200
     33 H101        -0.3610     0.8840    -0.5110 h1         1 A4Y       0.026700
     34 H102        -0.3610    -0.8840    -0.5110 h1         1 A4Y       0.026700
     35 H1          -3.0510     1.0930     3.0180 h1         1 A4Y       0.053700
     36 H213         1.6150    -3.9280     6.3010 hc         1 A4Y       0.043033
     37 H211         0.5260    -4.7760     7.4070 hc         1 A4Y       0.043033
     38 H212         1.1990    -3.2040     7.8600 hc         1 A4Y       0.043033
     39 H112         0.2950     0.2830     2.1110 hc         1 A4Y       0.094700
     40 H111        -1.3230     0.7090     1.5390 hc         1 A4Y       0.094700
     41 H5          -2.4160     0.7910     0.8050 h1         1 A4Y       0.040700
     42 H142        -1.9400    -0.1140     4.8300 hc         1 A4Y       0.057367
     43 H143        -0.8360     0.7760     3.7730 hc         1 A4Y       0.057367
     44 H141        -0.9950    -0.9790     3.6090 hc         1 A4Y       0.057367
     45 H161        -4.4950    -1.7440     4.9220 h1         1 A4Y       0.064700
     46 H162        -3.6790    -0.1750     5.1450 h1         1 A4Y       0.064700
     47 H181        -2.9470    -1.3370     7.3160 h4         1 A4Y      -0.001900
     48 H241        -0.9790    -2.3310     2.6820 hn         1 A4Y       0.447800
     49 H273        -4.0220    -3.6280     0.4930 hc         1 A4Y       0.053367
     50 H272        -5.5040    -4.2360     1.2450 hc         1 A4Y       0.053367
     51 H271        -5.2820    -2.4970     1.0080 hc         1 A4Y       0.053367
     52 H293        -3.1440    -5.5760     1.0650 hc         1 A4Y       0.039700
     53 H291        -1.8630    -5.8420     2.2560 hc         1 A4Y       0.039700
     54 H292        -2.0290    -4.2650     1.4730 hc         1 A4Y       0.039700
     55 H331        -2.7640    -5.3680     4.6190 ho         1 A4Y       0.395000
     56 H341        -5.9400    -2.8940     3.1470 ho         1 A4Y       0.392000
     57 C14         -1.5240    -0.0590     3.8310 c3         1 A4Y      -0.184100
     58 P02          2.2270     0.3880    -1.4170 p5         1 A4Y       1.398800
     59 C27         -4.7810    -3.4290     1.2410 c3         1 A4Y      -0.126100
@<TRIPOS>BOND
     1    26     7 1
     2    12    10 1
     3    11    10 1
     4    59     6 1
     5    28    27 1
     6    10    13 1
     7    10     9 1
     8     7    30 1
     9     7    27 1
    10     7     6 1
    11    27    29 1
    12     6    31 1
    13     6    25 1
    14     9    58 1
    15    32    25 1
    16    32    17 1
    17     1    16 1
    18     1    15 1
    19    25    24 1
    20    25    18 1
    21    17    16 1
    22    17     2 1
    23    58    15 1
    24    58    14 1
    25    58     8 1
    26    24    23 1
    27     2    18 1
    28     2    57 1
    29    18    19 1
    30    19     3 1
    31    23     3 ar
    32    23    22 ar
    33     3    20 ar
    34    22     4 ar
    35    20    21 ar
    36     4    21 ar
    37     4     5 1
    38     1    33 1
    39     1    34 1
    40     2    35 1
    41     5    36 1
    42     5    37 1
    43     5    38 1
    44    16    39 1
    45    16    40 1
    46    17    41 1
    47    57    42 1
    48    57    43 1
    49    57    44 1
    50    19    45 1
    51    19    46 1
    52    20    47 1
    53    24    48 1
    54    59    49 1
    55    59    50 1
    56    59    51 1
    57    26    52 1
    58    26    53 1
    59    26    54 1
    60    30    55 1
    61    31    56 1
@<TRIPOS>SUBSTRUCTURE
     1 A4Y         1 TEMP              0 ****  ****    0 ROOT
