@<TRIPOS>MOLECULE
molecule
   33    33     1     0     0
SMALL
bcc


@<TRIPOS>ATOM
      1 C1           0.0000     0.0000     0.0000 c3         1 A4Z      -0.092100
      2 C2           1.5060     0.0000     0.0000 ca         1 A4Z      -0.112300
      3 C3           2.1970     0.0000     1.1980 ca         1 A4Z      -0.070000
      4 C4           3.5780    -0.0000     1.2020 ca         1 A4Z      -0.188500
      5 C5           4.2730    -0.0010     0.0020 ca         1 A4Z       0.151100
      6 C6           3.5780    -0.0010    -1.2000 ca         1 A4Z      -0.188500
      7 C7           2.1970    -0.0060    -1.1980 ca         1 A4Z      -0.070000
      8 C8          -0.5030     1.4210    -0.0010 c          1 A4Z       0.664100
      9 O9           0.2850     2.3420     0.0000 o          1 A4Z      -0.558100
     10 N10         -1.8280     1.6670    -0.0010 ns         1 A4Z      -0.479400
     11 O11         -2.2990     3.0020    -0.0010 oh         1 A4Z      -0.363100
     12 O12          5.6320    -0.0000     0.0010 os         1 A4Z      -0.330900
     13 C13          6.2810    -0.0000    -1.2710 c3         1 A4Z       0.137400
     14 C14          7.7980     0.0000    -1.0710 c3         1 A4Z      -0.082400
     15 C15          8.4930    -0.0000    -2.4330 c3         1 A4Z      -0.082400
     16 C16         10.0090     0.0000    -2.2330 c3         1 A4Z      -0.090100
     17 H1          -0.3610    -0.5100     0.8850 hc         1 A4Z       0.063200
     18 H2          -0.3610    -0.5110    -0.8840 hc         1 A4Z       0.063200
     19 H3           1.6530     0.0000     2.1360 ha         1 A4Z       0.131000
     20 H4           4.1180    -0.0000     2.1410 ha         1 A4Z       0.140000
     21 H5           4.1190    -0.0030    -2.1390 ha         1 A4Z       0.140000
     22 H6           1.6540    -0.0060    -2.1360 ha         1 A4Z       0.131000
     23 H7          -2.4780     0.9070    -0.0330 hn         1 A4Z       0.315500
     24 H8          -3.2390     3.0040     0.0800 ho         1 A4Z       0.397000
     25 H9           5.9890     0.8840    -1.8250 h1         1 A4Z       0.035700
     26 H10          5.9900    -0.8850    -1.8250 h1         1 A4Z       0.035700
     27 H11          8.0890     0.8850    -0.5180 hc         1 A4Z       0.055700
     28 H12          8.0900    -0.8840    -0.5170 hc         1 A4Z       0.055700
     29 H13          8.2020    -0.8850    -2.9870 hc         1 A4Z       0.041700
     30 H14          8.2010     0.8840    -2.9870 hc         1 A4Z       0.041700
     31 H15         10.3000     0.8850    -1.6790 hc         1 A4Z       0.036033
     32 H16         10.3010    -0.8840    -1.6790 hc         1 A4Z       0.036033
     33 H17         10.5010    -0.0000    -3.1980 hc         1 A4Z       0.036033
@<TRIPOS>BOND
     1    13    14 1
     2    13    12 1
     3    14    15 1
     4    12     5 1
     5     6     5 ar
     6     6     7 ar
     7     5     4 ar
     8     7     2 ar
     9     4     3 ar
    10     2     3 ar
    11     2     1 1
    12    15    16 1
    13     1     8 1
    14     8     9 2
    15     8    10 1
    16    10    11 1
    17     1    17 1
    18     1    18 1
    19     3    19 1
    20     4    20 1
    21     6    21 1
    22     7    22 1
    23    10    23 1
    24    11    24 1
    25    13    25 1
    26    13    26 1
    27    14    27 1
    28    14    28 1
    29    15    29 1
    30    15    30 1
    31    16    31 1
    32    16    32 1
    33    16    33 1
@<TRIPOS>SUBSTRUCTURE
     1 A4Z         1 TEMP              0 ****  ****    0 ROOT
