@<TRIPOS>MOLECULE
A51
   25    26     1     0     0
SMALL
bcc


@<TRIPOS>ATOM
      1 C1           0.0000     0.0000     0.0000 c3         1 A51       0.220400
      2 C2           1.5470     0.0000     0.0000 c3         1 A51       0.010800
      3 C3           1.8640     0.0000     1.4870 ce         1 A51      -0.420400
      4 C4           0.6620     0.3520     2.1440 c          1 A51       0.832800
      5 O5          -0.3270     0.6020     1.2640 os         1 A51      -0.389900
      6 O6           0.5370     0.4190     3.3530 o          1 A51      -0.645500
      7 C7           3.0530    -0.2790     2.0630 c2         1 A51       0.052000
      8 N8           4.1290    -0.6060     1.2870 nu         1 A51      -0.162400
      9 C9           5.3590    -0.8950     1.8840 ca         1 A51      -0.005400
     10 C10          6.4540    -1.2270     1.0950 ca         1 A51      -0.151500
     11 C11          7.6690    -1.5120     1.6890 ca         1 A51      -0.059000
     12 C12          7.7960    -1.4670     3.0650 ca         1 A51      -0.129000
     13 C13          6.7060    -1.1380     3.8530 ca         1 A51      -0.059000
     14 C14          5.4910    -0.8460     3.2650 ca         1 A51      -0.151500
     15 H1          -0.3810     0.6000    -0.8170 h1         1 A51       0.015700
     16 H1A         -0.3810    -1.0130    -0.0490 h1         1 A51       0.015700
     17 H2           1.9310     0.8950    -0.4750 hc         1 A51       0.020700
     18 H2A          1.9310    -0.8950    -0.4750 hc         1 A51       0.020700
     19 H7           3.1530    -0.2450     3.1410 h4         1 A51       0.151000
     20 HN8          4.0450    -0.6050     0.2890 hn         1 A51       0.286800
     21 H10          6.3560    -1.2620     0.0170 ha         1 A51       0.115500
     22 H11          8.5230    -1.7700     1.0750 ha         1 A51       0.105000
     23 H12          8.7490    -1.6940     3.5280 ha         1 A51       0.107000
     24 H13          6.8090    -1.1020     4.9310 ha         1 A51       0.105000
     25 H14          4.6390    -0.5880     3.8830 ha         1 A51       0.115500
@<TRIPOS>BOND
     1     1     2 1   
     2     1     5 1   
     3     1    15 1   
     4     1    16 1   
     5     2     3 1   
     6     2    17 1   
     7     2    18 1   
     8     3     4 1   
     9     3     7 2   
    10     4     5 1   
    11     4     6 2   
    12     7     8 1   
    13     7    19 1   
    14     8     9 1   
    15     8    20 1   
    16     9    10 ar  
    17     9    14 ar  
    18    10    11 ar  
    19    10    21 1   
    20    11    12 ar  
    21    11    22 1   
    22    12    13 ar  
    23    12    23 1   
    24    13    14 ar  
    25    13    24 1   
    26    14    25 1   
@<TRIPOS>SUBSTRUCTURE
     1 A51         1 TEMP              0 ****  ****    0 ROOT
