@<TRIPOS>MOLECULE
molecule
   62    67     1     0     0
SMALL
bcc


@<TRIPOS>ATOM
      1 C1           0.0000     0.0000     0.0000 cc         1 A53      -0.160100
      2 C2           1.3870     0.0000     0.0000 cd         1 A53      -0.149000
      3 C3           1.7960     0.0000     1.3340 cd         1 A53      -0.202000
      4 C4           0.6850    -0.0110     2.1130 cc         1 A53      -0.141300
      5 N5          -0.4120    -0.0100     1.3150 na         1 A53      -0.131100
      6 C6          -0.8340     0.0030    -1.1360 ce         1 A53       0.056800
      7 C7          -1.3350     1.1960    -1.6220 cd         1 A53      -0.155400
      8 C8          -1.1040     2.5450    -1.0890 c          1 A53       0.707700
      9 N9          -1.7770     3.4170    -1.8590 ns         1 A53      -0.455100
     10 C10         -2.4560     2.7710    -2.8830 ca         1 A53       0.086600
     11 C11         -2.2230     1.3910    -2.7900 ca         1 A53      -0.114800
     12 O12         -0.4210     2.8240    -0.1200 o          1 A53      -0.569500
     13 C13         -3.2680     3.2560    -3.9040 ca         1 A53      -0.161000
     14 C14         -3.8340     2.3900    -4.8130 ca         1 A53      -0.072000
     15 C15         -3.6030     1.0160    -4.7220 cp         1 A53      -0.102000
     16 C16         -2.7990     0.5160    -3.7030 ca         1 A53      -0.052000
     17 C17         -4.2170     0.0910    -5.7070 cp         1 A53      -0.093300
     18 C18         -3.4970    -0.9910    -6.2050 ca         1 A53       0.412200
     19 N19         -4.0390    -1.8150    -7.0790 nb         1 A53      -0.638000
     20 C20         -5.2720    -1.6540    -7.5170 ca         1 A53       0.329200
     21 C21         -6.0570    -0.6000    -7.0700 ca         1 A53      -0.037200
     22 C22         -5.5260     0.2970    -6.1520 ca         1 A53      -0.112000
     23 O23         -7.3270    -0.4450    -7.5280 os         1 A53      -0.326900
     24 C24         -7.5660    -1.5100    -8.4500 c3         1 A53       0.090400
     25 C25         -8.9870    -1.3930    -9.0060 c3         1 A53       0.106500
     26 C26         -9.2870    -2.6010    -9.8960 c3         1 A53      -0.011200
     27 N27         -9.1030    -0.1600    -9.7980 nz         1 A53      -0.804600
     28 C28        -10.7250    -2.5480   -10.3450 cc         1 A53      -0.253400
     29 C29        -11.7650    -3.1670    -9.7640 cd         1 A53      -0.036100
     30 N30        -12.9160    -2.8880   -10.4500 na         1 A53      -0.160400
     31 C31        -12.6360    -2.0630   -11.5160 ca         1 A53      -0.029200
     32 C32        -11.2520    -1.8090   -11.4940 ca         1 A53      -0.128800
     33 C33        -13.4180    -1.4880   -12.5130 ca         1 A53      -0.113000
     34 C34        -12.8310    -0.6860   -13.4670 ca         1 A53      -0.096000
     35 C35        -11.4640    -0.4430   -13.4420 ca         1 A53      -0.118000
     36 C36        -10.6780    -0.9980   -12.4730 ca         1 A53      -0.138000
     37 H2           2.0310     0.0070    -0.8710 ha         1 A53       0.150000
     38 H3           2.8210     0.0010     1.6860 ha         1 A53       0.153000
     39 H4           0.6760    -0.0150     3.1960 h4         1 A53       0.168000
     40 HN5         -1.3620    -0.0150     1.6290 hn         1 A53       0.295700
     41 H6          -1.0850    -0.9290    -1.6270 ha         1 A53       0.139000
     42 HN9         -1.7870     4.4070    -1.7120 hn         1 A53       0.347500
     43 H13         -3.4550     4.3200    -3.9850 ha         1 A53       0.142000
     44 H14         -4.4610     2.7770    -5.6070 ha         1 A53       0.134000
     45 H16         -2.6150    -0.5490    -3.6270 ha         1 A53       0.139000
     46 H18         -2.4800    -1.1570    -5.8720 h4         1 A53       0.047100
     47 H20         -5.6790    -2.3540    -8.2350 h4         1 A53       0.018100
     48 H22         -6.1800     0.9750    -5.6160 ha         1 A53       0.160000
     49 H241        -6.8530    -1.4500    -9.2630 h1         1 A53       0.080700
     50 H242        -7.4550    -2.4590    -7.9410 h1         1 A53       0.080700
     51 H25         -9.6950    -1.3630    -8.1870 hx         1 A53       0.124700
     52 H261        -8.6370    -2.5820   -10.7620 hc         1 A53       0.085200
     53 H262        -9.1170    -3.5130    -9.3360 hc         1 A53       0.085200
     54 H271        -8.6130    -0.2730   -10.6630 hn         1 A53       0.458800
     55 H272       -10.0680     0.0280    -9.9820 hn         1 A53       0.458800
     56 H29        -11.7030    -3.7950    -8.8840 h4         1 A53       0.180000
     57 H30        -13.8260    -3.2320   -10.2130 hn         1 A53       0.319700
     58 H33        -14.4850    -1.6720   -12.5400 ha         1 A53       0.149000
     59 H34        -13.4420    -0.2390   -14.2420 ha         1 A53       0.155000
     60 H35        -11.0180     0.1900   -14.1990 ha         1 A53       0.146000
     61 H36         -9.6120    -0.8030   -12.4610 ha         1 A53       0.100000
     62 H273        -8.7510     0.6110    -9.2660 hn         1 A53       0.458800
@<TRIPOS>BOND
     1     1     2 2
     2     1     5 1
     3     1     6 1
     4     2     3 1
     5     2    37 1
     6     3     4 2
     7     3    38 1
     8     4     5 1
     9     4    39 1
    10     5    40 1
    11     6     7 2
    12     6    41 1
    13     7     8 1
    14     7    11 1
    15     8     9 1
    16     8    12 2
    17     9    10 1
    18     9    42 1
    19    10    11 ar
    20    10    13 ar
    21    11    16 ar
    22    13    14 ar
    23    13    43 1
    24    14    15 ar
    25    14    44 1
    26    15    16 ar
    27    15    17 1
    28    16    45 1
    29    17    18 ar
    30    17    22 ar
    31    18    19 ar
    32    18    46 1
    33    19    20 ar
    34    20    21 ar
    35    20    47 1
    36    21    22 ar
    37    21    23 1
    38    22    48 1
    39    23    24 1
    40    24    25 1
    41    24    49 1
    42    24    50 1
    43    25    26 1
    44    25    27 1
    45    25    51 1
    46    26    28 1
    47    26    52 1
    48    26    53 1
    49    27    54 1
    50    27    55 1
    51    28    29 2
    52    28    32 1
    53    29    30 1
    54    29    56 1
    55    30    31 1
    56    30    57 1
    57    31    32 ar
    58    31    33 ar
    59    32    36 ar
    60    33    34 ar
    61    33    58 1
    62    34    35 ar
    63    34    59 1
    64    35    36 ar
    65    35    60 1
    66    36    61 1
    67    62    27 1
@<TRIPOS>SUBSTRUCTURE
     1 A53         1 TEMP              0 ****  ****    0 ROOT
