@<TRIPOS>MOLECULE
molecule
   36    37     1     0     0
SMALL
bcc


@<TRIPOS>ATOM
      1 C1           0.0000     0.0000     0.0000 ca         1 A54      -0.097000
      2 C2           1.3820     0.0000     0.0000 ca         1 A54      -0.119500
      3 C3           2.0730     0.0000     1.1970 ca         1 A54      -0.104000
      4 C4           1.3820     0.0000     2.3940 ca         1 A54      -0.132300
      5 C5          -0.0000     0.0000     2.3940 ca         1 A54      -0.104000
      6 C6          -0.6910     0.0000     1.1970 ca         1 A54      -0.119500
      7 C7           2.1350    -0.0020     3.7000 c3         1 A54       0.204400
      8 C8           2.1740     1.4180     4.2670 c3         1 A54      -0.130400
      9 C9           3.0430     1.4400     5.5270 c3         1 A54       0.082800
     10 N10          3.0810     2.8040     6.0720 nz         1 A54      -0.809600
     11 O11          1.4780    -0.8680     4.6280 os         1 A54      -0.304900
     12 C12          2.2700    -1.6300     5.4240 ca         1 A54       0.158100
     13 C13          3.6440    -1.4650     5.4030 ca         1 A54      -0.266000
     14 C14          4.4490    -2.2410     6.2150 ca         1 A54       0.081400
     15 C15          3.8880    -3.1900     7.0570 ca         1 A54      -0.148000
     16 C16          2.5220    -3.3670     7.0910 ca         1 A54      -0.033000
     17 C17          1.6970    -2.5840     6.2780 ca         1 A54      -0.031000
     18 C18          0.2760    -2.7600     6.3140 cg         1 A54       0.227800
     19 N19         -0.8490    -2.9000     6.3620 n1         1 A54      -0.318800
     20 Cl2          6.1720    -2.0300     6.1820 cl         1 A54      -0.075400
     21 H1          -0.5420     0.0000    -0.9380 ha         1 A54       0.149000
     22 H2           1.9240    -0.0000    -0.9380 ha         1 A54       0.147500
     23 H6          -1.7740     0.0000     1.1970 ha         1 A54       0.147500
     24 H3           3.1560    -0.0000     1.1970 ha         1 A54       0.134500
     25 H5          -0.5420     0.0000     3.3320 ha         1 A54       0.134500
     26 H7           3.1460    -0.3520     3.5320 h1         1 A54       0.072700
     27 H81C         2.5910     2.0910     3.5280 hc         1 A54       0.081200
     28 H82C         1.1680     1.7350     4.5170 hc         1 A54       0.081200
     29 H91C         4.0490     1.1230     5.2770 hx         1 A54       0.118200
     30 H92C         2.6260     0.7670     6.2660 hx         1 A54       0.118200
     31 H101         3.6270     2.8130     6.9110 hn         1 A54       0.457467
     32 H102         3.4920     3.4210     5.4000 hn         1 A54       0.457467
     33 H13          4.0920    -0.7530     4.7200 ha         1 A54       0.140000
     34 H15          4.5260    -3.7940     7.6910 ha         1 A54       0.170000
     35 H16          2.0840    -4.0700     7.7890 ha         1 A54       0.170000
     36 H103         2.1490     3.1090     6.2710 hn         1 A54       0.457467
@<TRIPOS>BOND
     1     1     2 ar
     2     1     6 ar
     3     2     3 ar
     4     3     4 ar
     5     4     5 ar
     6     4     7 1
     7     5     6 ar
     8     7     8 1
     9     7    11 1
    10     8     9 1
    11     9    10 1
    12    11    12 1
    13    12    13 ar
    14    12    17 ar
    15    13    14 ar
    16    14    15 ar
    17    14    20 1
    18    15    16 ar
    19    16    17 ar
    20    17    18 1
    21    18    19 3
    22     1    21 1
    23     2    22 1
    24     6    23 1
    25     3    24 1
    26     5    25 1
    27     7    26 1
    28     8    27 1
    29     8    28 1
    30     9    29 1
    31     9    30 1
    32    10    31 1
    33    10    32 1
    34    13    33 1
    35    15    34 1
    36    16    35 1
    37    36    10 1
@<TRIPOS>SUBSTRUCTURE
     1 A54         1 TEMP              0 ****  ****    0 ROOT
