@<TRIPOS>MOLECULE
A55
   39    41     1     0     0
SMALL
bcc


@<TRIPOS>ATOM
      1 C2         -0.1120   -0.7540    0.1020 ca        1 A55     -0.031000
      2 C1          1.2660   -0.9750    0.1400 ca        1 A55     -0.147000
      3 C6          2.0170   -0.5290    1.2280 ca        1 A55      0.170900
      4 C5          1.4080    0.1590    2.3130 ca        1 A55     -0.337900
      5 C4         -0.0030    0.3810    2.2800 ca        1 A55      0.239600
      6 C3         -0.7530   -0.0930    1.1500 ca        1 A55      0.064900
      7 F27        -2.0910    0.1110    1.1100 f         1 A55     -0.106900
      8 N7         -0.6350    1.0530    3.3020 nh        1 A55     -0.801600
      9 C8          0.0630    1.4840    4.5050 c3        1 A55      0.463700
     10 N9          1.5030    1.2550    4.5200 n2        1 A55     -0.621900
     11 C10         2.0810    0.6840    3.5040 ce        1 A55      0.626800
     12 N11         3.5660    0.5750    3.5580 n4        1 A55     -0.807600
     13 C16        -0.6110    0.8820    5.7820 c3        1 A55     -0.131400
     14 C17        -0.1250    1.6290    7.0160 c3        1 A55      0.106800
     15 N18        -0.8580    1.2430    8.2570 n4        1 A55     -0.689800
     16 C20        -0.2040    1.8380    9.5230 c         1 A55      0.624700
     17 C21        -1.1100    2.2260   10.5590 cc        1 A55     -0.371900
     18 C23        -0.6380    2.8080   11.8110 cc        1 A55     -0.195300
     19 C24        -1.7620    3.0510   12.5690 cd        1 A55      0.293600
     20 O25        -2.9080    2.6540   11.8610 os        1 A55     -0.289800
     21 C26        -2.5040    2.1580   10.6520 cd        1 A55      0.349600
     22 O22         1.0150    1.8890    9.4840 o         1 A55     -0.421100
     23 F12         3.3530   -0.7680    1.2380 f         1 A55     -0.143900
     24 H2         -0.7060   -1.1050   -0.7630 ha        1 A55      0.201000
     25 H1          1.7660   -1.5040   -0.6910 ha        1 A55      0.199000
     26 HN7        -1.6120    1.2350    3.2350 hn        1 A55      0.486800
     27 H8         -0.0500    2.6210    4.5730 h2        1 A55      0.100700
     28 H111        3.8250   -0.4210    3.4990 hn        1 A55      0.486133
     29 H112        3.9570    0.9870    4.4150 hn        1 A55      0.486133
     30 H161       -1.7230    0.9940    5.6700 hc        1 A55      0.084200
     31 H162       -0.3830   -0.2130    5.8620 hc        1 A55      0.084200
     32 H171       -0.2520    2.7420    6.8820 hx        1 A55      0.122700
     33 H172        0.9740    1.4220    7.1920 hx        1 A55      0.122700
     34 H18        -0.8520    0.2210    8.3520 hn        1 A55      0.453800
     35 H23         0.4050    2.9970   12.0650 ha        1 A55      0.208000
     36 H24        -1.9710    3.4640   13.5580 h4        1 A55      0.107100
     37 H26        -3.3170    1.8110   10.0120 h4        1 A55      0.073100
     38 H113        3.9530    1.0600    2.7330 hn        1 A55      0.486133
     39 H182       -1.8310    1.5540    8.1960 hn        1 A55      0.453800
@<TRIPOS>BOND
     1    1    2 ar  
     2    1    6 ar  
     3    1   24 1   
     4    2    3 ar  
     5    2   25 1   
     6    3    4 ar  
     7    3   23 1   
     8    4    5 ar  
     9    4   11 1   
    10    5    6 ar  
    11    5    8 1   
    12    6    7 1   
    13    8    9 1   
    14    8   26 1   
    15    9   10 1   
    16    9   13 1   
    17    9   27 1   
    18   10   11 2   
    19   11   12 1   
    20   12   28 1   
    21   12   29 1   
    22   12   38 1   
    23   13   14 1   
    24   13   30 1   
    25   13   31 1   
    26   14   15 1   
    27   14   32 1   
    28   14   33 1   
    29   15   16 1   
    30   15   34 1   
    31   15   39 1   
    32   16   17 1   
    33   16   22 2   
    34   17   18 1   
    35   17   21 2   
    36   18   19 2   
    37   18   35 1   
    38   19   20 1   
    39   19   36 1   
    40   20   21 1   
    41   21   37 1   
@<TRIPOS>SUBSTRUCTURE
     1 A55         1 TEMP              0 ****  ****    0 ROOT
