@<TRIPOS>MOLECULE
molecule
   29    31     1     0     0
SMALL
bcc


@<TRIPOS>ATOM
      1 C1           0.0000     0.0000     0.0000 ca         1 A56      -0.116000
      2 C2           1.3610     0.0000     0.0000 ca         1 A56      -0.119000
      3 C3           2.0580     0.0000     1.2200 ca         1 A56      -0.021000
      4 C4           1.3270    -0.0010     2.4350 ca         1 A56      -0.049000
      5 C5          -0.0780    -0.0020     2.3950 ca         1 A56      -0.107000
      6 C6          -0.7180    -0.0010     1.1940 ca         1 A56      -0.127000
      7 C7           3.4640    -0.0010     1.2520 ca         1 A56      -0.106000
      8 C8           4.1150    -0.0020     2.4460 ca         1 A56       0.018100
      9 C9           3.4010    -0.0020     3.6570 cp         1 A56      -0.134500
     10 C10          2.0190    -0.0020     3.6570 ca         1 A56      -0.055000
     11 Br1          6.0060    -0.0030     2.4760 br         1 A56      -0.045100
     12 C12          4.1360    -0.0030     4.9440 cp         1 A56       0.808500
     13 N13          3.4660    -0.0090     6.0920 nb         1 A56      -0.833000
     14 C14          4.1270    -0.0100     7.2460 ca         1 A56       0.989900
     15 N15          5.4560    -0.0040     7.2520 nb         1 A56      -0.865000
     16 C16          6.1260     0.0020     6.1040 ca         1 A56       0.989900
     17 N17          5.4660    -0.0030     4.9500 nb         1 A56      -0.833000
     18 N18          7.5070     0.0080     6.1100 nv         1 A56      -1.022000
     19 N19          3.4320    -0.0160     8.4390 nv         1 A56      -1.022000
     20 H1          -0.5330     0.0010    -0.9430 ha         1 A56       0.131000
     21 H2           1.9050     0.0010    -0.9370 ha         1 A56       0.136000
     22 H5          -0.6490    -0.0030     3.3160 ha         1 A56       0.136000
     23 H6          -1.8010    -0.0010     1.1670 ha         1 A56       0.131000
     24 H7           4.0280    -0.0010     0.3270 ha         1 A56       0.149000
     25 H10          1.4730    -0.0020     4.5930 ha         1 A56       0.162000
     26 H181         8.0110    -0.8570     6.1230 hn         1 A56       0.450300
     27 H182         8.0030     0.8770     6.1250 hn         1 A56       0.450300
     28 H191         3.9290    -0.0160     9.3080 hn         1 A56       0.450300
     29 H192         2.4310    -0.0200     8.4350 hn         1 A56       0.450300
@<TRIPOS>BOND
     1     1     6 ar
     2     1     2 ar
     3     1    20 1
     4     2     3 ar
     5     2    21 1
     6     3     4 ar
     7     3     7 ar
     8     4    10 ar
     9     4     5 ar
    10     5     6 ar
    11     5    22 1
    12     6    23 1
    13     7     8 ar
    14     7    24 1
    15     8     9 ar
    16     8    11 1
    17     9    12 1
    18     9    10 ar
    19    10    25 1
    20    12    17 ar
    21    12    13 ar
    22    13    14 ar
    23    14    15 ar
    24    14    19 1
    25    15    16 ar
    26    16    18 1
    27    16    17 ar
    28    18    26 1
    29    18    27 1
    30    19    28 1
    31    19    29 1
@<TRIPOS>SUBSTRUCTURE
     1 A56         1 TEMP              0 ****  ****    0 ROOT
