@<TRIPOS>MOLECULE
molecule
   46    47     1     0     0
SMALL
bcc


@<TRIPOS>ATOM
      1 CAP          0.0000     0.0000     0.0000 c3         1 A57      -0.237850
      2 CAO          1.5300     0.0000     0.0000 c3         1 A57      -0.022400
      3 CAQ          2.0400     0.0000     1.4430 c3         1 A57      -0.237850
      4 CAE          2.0340    -1.2300    -0.7100 ca         1 A57       0.029400
      5 CAD          1.3330    -2.4170    -0.6000 ca         1 A57      -0.160000
      6 CAC          1.8040    -3.5420    -1.2580 ca         1 A57       0.037700
      7 CAN          1.0690    -4.8550    -1.1630 c3         1 A57      -0.068800
      8 CAB          2.9670    -3.4320    -2.0050 ca         1 A57      -0.160000
      9 CAA          3.6120    -2.2120    -2.0690 ca         1 A57       0.029400
     10 CAR          4.8770    -2.0810    -2.8790 c3         1 A57      -0.022400
     11 CAT          6.0750    -2.5080    -2.0270 c3         1 A57      -0.237850
     12 CAS          4.7860    -2.9760    -4.1160 c3         1 A57      -0.237850
     13 NAF          3.1340    -1.1610    -1.4340 na         1 A57       0.076900
     14 CAG          3.8470     0.1150    -1.5270 c3         1 A57      -0.025700
     15 CAH          3.3210     0.9090    -2.7230 c3         1 A57      -0.013100
     16 CAI          4.0550     2.2220    -2.8190 cc         1 A57      -0.285900
     17 CAM          5.2380     2.4380    -3.4250 cd         1 A57       0.354200
     18 NAL          5.5440     3.7360    -3.2860 nd         1 A57      -0.678000
     19 CAK          4.5970     4.3320    -2.6170 cc         1 A57       0.434400
     20 NAJ          3.6450     3.4240    -2.3110 na         1 A57      -0.295900
     21 HAT         -0.3610     0.8990     0.4850 hc         1 A57       0.098783
     22 HAS         -0.3610    -0.8690     0.5360 hc         1 A57       0.098783
     23 HAR         -0.3610    -0.0300    -1.0210 hc         1 A57       0.098783
     24 HAQ          1.8910     0.8850    -0.5100 hc         1 A57       0.075700
     25 HAU          1.4430    -0.9040     1.4610 hc         1 A57       0.098783
     26 HAW          1.5270     0.1400     2.3870 hc         1 A57       0.098783
     27 HAV          1.7630     1.0430     1.3470 hc         1 A57       0.098783
     28 HAD          0.5360    -2.5090     0.1280 ha         1 A57       0.186000
     29 HAO          1.5870    -5.5100    -0.4730 hc         1 A57       0.077367
     30 HAP          1.0290    -5.3180    -2.1410 hc         1 A57       0.077367
     31 HAN          0.0610    -4.6800    -0.8060 hc         1 A57       0.077367
     32 HAB          3.3630    -4.2910    -2.5320 ha         1 A57       0.186000
     33 HAX          5.0030    -1.0500    -3.1870 hc         1 A57       0.075700
     34 HA1          6.0750    -3.5860    -1.9190 hc         1 A57       0.098783
     35 HA2          6.0050    -2.0480    -1.0490 hc         1 A57       0.098783
     36 HA3          6.9920    -2.1940    -2.5100 hc         1 A57       0.098783
     37 HAZ          4.8910    -4.0120    -3.8200 hc         1 A57       0.098783
     38 HAY          3.8240    -2.8330    -4.5950 hc         1 A57       0.098783
     39 HA0          5.5760    -2.7160    -4.8090 hc         1 A57       0.098783
     40 HAG          4.9070    -0.0710    -1.6550 h1         1 A57       0.114200
     41 HAH          3.6880     0.6840    -0.6180 h1         1 A57       0.114200
     42 HAJ          3.4790     0.3400    -3.6320 hc         1 A57       0.064700
     43 HAI          2.2620     1.0960    -2.5950 hc         1 A57       0.064700
     44 HAM          5.8370     1.6940    -3.9350 h4         1 A57       0.043100
     45 HAK          4.5740     5.3830    -2.3560 h5         1 A57       0.082100
     46 HA4          2.8010     3.5970    -1.8010 hn         1 A57       0.297700
@<TRIPOS>BOND
     1    11    10 1
     2    10    12 1
     3    10     9 1
     4     9     8 ar
     5     9    13 2
     6     8     6 ar
     7    14    13 1
     8    14    15 1
     9    13     4 1
    10     6     7 1
    11     6     5 ar
    12     1     2 1
    13     4     5 ar
    14     4     2 1
    15    20    16 1
    16    20    19 1
    17    15    16 1
    18    16    17 2
    19    19    18 2
    20     2     3 1
    21    18    17 1
    22     1    21 1
    23     1    22 1
    24     1    23 1
    25     2    24 1
    26     3    25 1
    27     3    26 1
    28     3    27 1
    29     5    28 1
    30     7    29 1
    31     7    30 1
    32     7    31 1
    33     8    32 1
    34    10    33 1
    35    11    34 1
    36    11    35 1
    37    11    36 1
    38    12    37 1
    39    12    38 1
    40    12    39 1
    41    14    40 1
    42    14    41 1
    43    15    42 1
    44    15    43 1
    45    17    44 1
    46    19    45 1
    47    20    46 1
@<TRIPOS>SUBSTRUCTURE
     1 A57         1 TEMP              0 ****  ****    0 ROOT
