@<TRIPOS>MOLECULE
molecule
   56    60     1     0     0
SMALL
bcc


@<TRIPOS>ATOM
      1 C1           0.0000     0.0000     0.0000 c3         1 A58      -0.086100
      2 C2           4.3690     0.0000     0.0000 c3         1 A58       0.174500
      3 C3           3.6410     0.0000     1.3460 c3         1 A58      -0.074900
      4 C4           2.1780    -0.4120     1.1940 c3         1 A58      -0.071400
      5 C5           1.4450     0.4640     0.1700 c3         1 A58      -0.072700
      6 C6           2.1790     0.4580    -1.1780 c3         1 A58      -0.071400
      7 C7           3.6410     0.8710    -1.0260 c3         1 A58      -0.074900
      8 N8           5.7350     0.4370     0.1640 n7         1 A58      -0.808200
      9 C9           6.4510     0.3620    -1.0990 c3         1 A58       0.204100
     10 C10          7.8780     0.8070    -0.9630 ca         1 A58      -0.093300
     11 C11          8.1920     2.1530    -1.1570 ca         1 A58      -0.092000
     12 C12          9.5160     2.5310    -1.0230 ca         1 A58      -0.080300
     13 C13         10.5020     1.5570    -0.6990 ca         1 A58      -0.010000
     14 C14         10.2010     0.2280    -0.5050 ca         1 A58      -0.116000
     15 C15          8.8620    -0.1440    -0.6420 ca         1 A58      -0.133000
     16 C16         10.0920     3.9500    -1.1920 c3         1 A58       0.057200
     17 C17         11.5150     3.6090    -0.9130 cc         1 A58      -0.264600
     18 C18         11.7190     2.2830    -0.6440 cd         1 A58      -0.086300
     19 C19         12.7850     4.1790    -0.8210 cc         1 A58       0.429800
     20 N20         13.7240     3.2650    -0.5140 nd         1 A58      -0.506800
     21 N21         13.0310     2.1010    -0.4100 na         1 A58      -0.002600
     22 C22         13.1370     5.5610    -1.0150 ca         1 A58      -0.171500
     23 C23         14.2200     6.1050    -0.3260 ca         1 A58      -0.136500
     24 C24         14.5610     7.4440    -0.5140 ca         1 A58      -0.105500
     25 C25         13.8200     8.2370    -1.3900 ca         1 A58      -0.080600
     26 C26         12.7370     7.6890    -2.0780 ca         1 A58      -0.105500
     27 C27         12.3950     6.3500    -1.8910 ca         1 A58      -0.136500
     28 C28         14.1750     9.6330    -1.5850 c          1 A58       0.873200
     29 O29         13.3540    10.2610    -2.4710 o          1 A58      -0.840300
     30 O30         15.1100    10.2180    -1.0290 o          1 A58      -0.840300
     31 H11A        -0.5070     0.6480    -0.7040 hc         1 A58       0.032033
     32 H12         -0.5070     0.0400     0.9570 hc         1 A58       0.032033
     33 H13         -0.0120    -1.0170    -0.3730 hc         1 A58       0.032033
     34 H5           1.4370     1.4810     0.5420 hc         1 A58       0.048700
     35 H61          1.6860     1.1500    -1.8500 hc         1 A58       0.038200
     36 H62          2.1370    -0.5400    -1.5970 hc         1 A58       0.038200
     37 H71          3.6830     1.9040    -0.7040 hc         1 A58       0.048700
     38 H72          4.1360     0.7740    -1.9850 hc         1 A58       0.048700
     39 H2           4.3800    -1.0170    -0.3730 h1         1 A58       0.005700
     40 H41          1.6850    -0.3180     2.1540 hc         1 A58       0.038200
     41 H42          2.1350    -1.4450     0.8700 hc         1 A58       0.038200
     42 HN8          6.1910    -0.1410     0.8410 hn         1 A58       0.358800
     43 H91          5.9530     0.9940    -1.8240 h1         1 A58       0.033200
     44 H92          6.4340    -0.6620    -1.4530 h1         1 A58       0.033200
     45 H15          8.5770    -1.1800    -0.5000 ha         1 A58       0.121000
     46 H14         10.9680    -0.4960    -0.2580 ha         1 A58       0.130000
     47 H11          7.4900     2.8050    -1.6620 ha         1 A58       0.139000
     48 H161         9.6940     4.6330    -0.4510 hc         1 A58       0.081200
     49 H162         9.9610     4.3160    -2.2030 hc         1 A58       0.081200
     50 H21         13.4450     1.2170    -0.1880 hn         1 A58       0.309700
     51 H27         11.5540     5.9250    -2.4260 ha         1 A58       0.114500
     52 H26         12.1610     8.3040    -2.7590 ha         1 A58       0.154000
     53 H24         15.4020     7.8690     0.0210 ha         1 A58       0.154000
     54 H23         14.7950     5.4880     0.3550 ha         1 A58       0.114500
     55 H31          3.6850     0.9960     1.7690 hc         1 A58       0.048700
     56 H32          4.1360    -0.6950     2.0130 hc         1 A58       0.048700
@<TRIPOS>BOND
     1     1     5 1
     2     1    31 1
     3     1    32 1
     4     1    33 1
     5     2     7 1
     6     2     3 1
     7     2     8 1
     8     2    39 1
     9     3     4 1
    10     3    55 1
    11     3    56 1
    12     4     5 1
    13     4    40 1
    14     4    41 1
    15     5     6 1
    16     5    34 1
    17     6     7 1
    18     6    35 1
    19     6    36 1
    20     7    37 1
    21     7    38 1
    22     8     9 1
    23     8    42 1
    24     9    10 1
    25     9    43 1
    26     9    44 1
    27    10    15 ar
    28    10    11 ar
    29    11    12 ar
    30    11    47 1
    31    12    13 ar
    32    12    16 1
    33    13    14 ar
    34    13    18 1
    35    14    15 ar
    36    14    46 1
    37    15    45 1
    38    16    17 1
    39    16    48 1
    40    16    49 1
    41    17    19 1
    42    17    18 2
    43    18    21 1
    44    19    20 2
    45    19    22 1
    46    20    21 1
    47    21    50 1
    48    22    27 ar
    49    22    23 ar
    50    23    24 ar
    51    23    54 1
    52    24    25 ar
    53    24    53 1
    54    25    26 ar
    55    25    28 1
    56    26    27 ar
    57    26    52 1
    58    27    51 1
    59    28    29 1
    60    28    30 1
@<TRIPOS>SUBSTRUCTURE
     1 A58         1 TEMP              0 ****  ****    0 ROOT
