@<TRIPOS>MOLECULE
A5A
   47    49     1     0     0
SMALL
bcc


@<TRIPOS>ATOM
      1 N           0.7530    1.4140   -1.2310 n3        1 A5A     -0.919800
      2 CA          0.9050    0.2440   -0.3890 c3        1 A5A      0.105500
      3 CB         -0.3930   -0.3620    0.1420 c3        1 A5A     -0.131100
      4 C           1.6880   -0.8600   -1.1290 c         1 A5A      0.689100
      5 O           1.2630   -2.0180   -1.2360 o         1 A5A     -0.554100
      6 N3S         2.9320   -0.5230   -1.6760 n         1 A5A     -0.701300
      7 S           4.0420   -1.5120   -2.3500 s6        1 A5A      1.702100
      8 O1S         5.0050   -0.7170   -2.9650 o         1 A5A     -0.635300
      9 O2S         4.4100   -2.5710   -1.5480 o         1 A5A     -0.635300
     10 O5'         3.2470   -2.2420   -3.6310 os        1 A5A     -0.549500
     11 C5'         2.9870   -1.5620   -4.8340 c3        1 A5A      0.163400
     12 C4'         2.5100   -2.5970   -5.8540 c3        1 A5A      0.093100
     13 O4'         1.2130   -3.0950   -5.4970 os        1 A5A     -0.385600
     14 C3'         2.4080   -1.9760   -7.2650 c3        1 A5A      0.128100
     15 O3'         3.0710   -2.7590   -8.2240 oh        1 A5A     -0.569800
     16 C2'         0.8920   -1.8210   -7.5250 c3        1 A5A      0.081100
     17 O2'         0.5580   -2.5560   -8.6810 oh        1 A5A     -0.589800
     18 C1'         0.1950   -2.4800   -6.2870 c3        1 A5A      0.216800
     19 N9         -0.5710   -1.5510   -5.4830 na        1 A5A     -0.291000
     20 C8         -0.5430   -1.3840   -4.0770 cc        1 A5A      0.428700
     21 N7         -1.4450   -0.4970   -3.6290 nd        1 A5A     -0.574100
     22 C5         -2.1290   -0.0550   -4.7720 ca        1 A5A     -0.222200
     23 C6         -3.2090    0.8680   -4.9730 ca        1 A5A      0.748200
     24 N6         -3.7210    1.5760   -3.9090 nh        1 A5A     -0.944500
     25 N1         -3.6830    1.0660   -6.2470 nb        1 A5A     -0.787000
     26 C2         -3.0830    0.3830   -7.2580 ca        1 A5A      0.687900
     27 N3         -2.0620   -0.5050   -7.2240 nb        1 A5A     -0.753000
     28 C4         -1.5940   -0.7170   -5.9570 ca        1 A5A      0.447800
     29 H           0.1300    1.2270   -1.9930 hn        1 A5A      0.368300
     30 HN2         0.3940    2.1770   -0.6920 hn        1 A5A      0.368300
     31 HA          1.5430    0.5450    0.4980 h1        1 A5A      0.078700
     32 HB1        -0.1600   -1.2490    0.7800 hc        1 A5A      0.057700
     33 HB2        -0.9440    0.3910    0.7530 hc        1 A5A      0.057700
     34 HB3        -1.0450   -0.7010   -0.6990 hc        1 A5A      0.057700
     35 H3S         3.1170    0.4610   -1.6610 hn        1 A5A      0.358500
     36 H5'1        2.1860   -0.7940   -4.6550 h1        1 A5A      0.050700
     37 H5'2        3.9290   -1.0690   -5.2010 h1        1 A5A      0.050700
     38 H4'         3.1790   -3.5000   -5.8330 h1        1 A5A      0.116700
     39 H3'         2.9230   -0.9770   -7.3120 h1        1 A5A      0.094700
     40 H3T         2.5300   -3.5390   -8.4060 ho        1 A5A      0.426000
     41 H2'         0.6240   -0.7390   -7.6460 h1        1 A5A      0.084700
     42 HO'2       -0.3070   -2.2400   -8.9730 ho        1 A5A      0.434000
     43 H1'        -0.4890   -3.3220   -6.6130 h2        1 A5A      0.106700
     44 H8          0.1630   -1.9620   -3.4560 h5        1 A5A      0.107800
     45 H61        -3.5110    1.2440   -2.9990 hn        1 A5A      0.438300
     46 H62        -4.5560    2.0980   -4.0340 hn        1 A5A      0.438300
     47 H2         -3.5040    0.5870   -8.2670 h5        1 A5A      0.054100
@<TRIPOS>BOND
     1    1    2 1
     2    1   29 1
     3    1   30 1
     4    2    3 1
     5    2    4 1
     6    2   31 1
     7    3   32 1
     8    3   33 1
     9    3   34 1
    10    4    5 2
    11    4    6 1
    12    6    7 1
    13    6   35 1
    14    7    8 2
    15    7    9 2
    16    7   10 1
    17   10   11 1
    18   11   12 1
    19   11   36 1
    20   11   37 1
    21   12   13 1
    22   12   14 1
    23   12   38 1
    24   13   18 1
    25   14   15 1
    26   14   16 1
    27   14   39 1
    28   15   40 1
    29   16   17 1
    30   16   18 1
    31   16   41 1
    32   17   42 1
    33   18   19 1
    34   18   43 1
    35   19   20 1
    36   19   28 1
    37   20   21 2
    38   20   44 1
    39   21   22 1
    40   22   23 ar
    41   22   28 ar
    42   23   24 1
    43   23   25 ar
    44   24   45 1
    45   24   46 1
    46   25   26 ar
    47   26   27 ar
    48   26   47 1
    49   27   28 ar
@<TRIPOS>SUBSTRUCTURE
     1 A5A         1 TEMP              0 ****  ****    0 ROOT
