@<TRIPOS>MOLECULE
molecule
   56    60     1     0     0
SMALL
bcc


@<TRIPOS>ATOM
      1 C26          0.0000     0.0000     0.0000 c3         1 A5B       0.122700
      2 O2           1.4290     0.0000     0.0000 os         1 A5B      -0.258900
      3 C24          2.0440     0.0000     1.2100 ca         1 A5B       0.166100
      4 C25          1.2940     0.0000     2.3720 ca         1 A5B      -0.278000
      5 C23          3.4460    -0.0070     1.2880 ca         1 A5B      -0.131600
      6 C27          4.2540    -0.0130     0.0590 c          1 A5B       0.883200
      7 O4           3.7090    -0.0130    -1.0270 o          1 A5B      -0.831300
      8 O3           5.6010    -0.0180     0.1370 o          1 A5B      -0.831300
      9 C22          4.0710    -0.0060     2.5400 ca         1 A5B      -0.054000
     10 C21          3.3210    -0.0000     3.6790 ca         1 A5B      -0.184000
     11 C20          1.9300     0.0010     3.6080 ca         1 A5B       0.142600
     12 N4           1.1740     0.0070     4.7760 nu         1 A5B      -0.737300
     13 C12          1.6360    -0.6530     5.9030 ca         1 A5B       0.944900
     14 N3           0.9600    -0.5430     7.0350 nb         1 A5B      -0.807000
     15 N2           2.7390    -1.3830     5.8170 nb         1 A5B      -0.752000
     16 C11          3.2070    -2.0310     6.8700 ca         1 A5B       0.511200
     17 C10          2.5280    -1.9400     8.0760 ca         1 A5B      -0.408900
     18 C9           3.0400    -2.6900     9.2720 c3         1 A5B       0.179100
     19 N1           2.0600    -3.6930     9.6760 n2         1 A5B      -0.564900
     20 C13          1.3790    -1.1680     8.1420 cp         1 A5B       0.553800
     21 C14          0.6070    -0.9890     9.3900 cp         1 A5B      -0.110500
     22 C19          0.0720     0.2800     9.6380 ca         1 A5B      -0.084000
     23 C18         -0.6550     0.5230    10.7820 ca         1 A5B      -0.126000
     24 C17         -0.8620    -0.4910    11.7020 ca         1 A5B       0.030400
     25 Cl1         -1.7770    -0.1800    13.1450 cl         1 A5B      -0.118400
     26 C16         -0.3440    -1.7480    11.4740 ca         1 A5B      -0.108000
     27 C15          0.3940    -2.0150    10.3130 ca         1 A5B      -0.136900
     28 C8           0.9000    -3.3820    10.1300 ce         1 A5B       0.528500
     29 C7          -0.0020    -4.4920    10.5010 ca         1 A5B      -0.191900
     30 C6           0.0120    -5.0060    11.8010 ca         1 A5B       0.182900
     31 F1           0.8520    -4.4890    12.7240 f          1 A5B      -0.132900
     32 C5          -0.8340    -6.0440    12.1400 ca         1 A5B      -0.213000
     33 C4          -1.6960    -6.5780    11.1960 ca         1 A5B      -0.061000
     34 C3          -1.7190    -6.0780     9.9080 ca         1 A5B      -0.240000
     35 C2          -0.8810    -5.0320     9.5530 ca         1 A5B       0.196100
     36 O1          -0.9080    -4.5370     8.2890 os         1 A5B      -0.303900
     37 C1          -1.8290    -5.1370     7.3770 c3         1 A5B       0.127700
     38 H1          -0.3610    -0.8840     0.5120 h1         1 A5B       0.024700
     39 H2          -0.3610     0.8850     0.5090 h1         1 A5B       0.024700
     40 H3          -0.3610    -0.0010    -1.0210 h1         1 A5B       0.024700
     41 H4           0.2120     0.0010     2.3190 ha         1 A5B       0.115000
     42 H6           5.1530    -0.0090     2.6050 ha         1 A5B       0.163000
     43 H7           3.8100     0.0000     4.6460 ha         1 A5B       0.131000
     44 H8           0.3180     0.5250     4.8150 hn         1 A5B       0.455800
     45 H9           4.1090    -2.6260     6.7930 h4         1 A5B       0.034100
     46 H10          3.9720    -3.1800     9.0180 h1         1 A5B       0.060200
     47 H11          3.2020    -1.9970    10.0890 h1         1 A5B       0.060200
     48 H12          0.2300     1.0780     8.9230 ha         1 A5B       0.160000
     49 H13         -1.0650     1.5100    10.9630 ha         1 A5B       0.144000
     50 H14         -0.5100    -2.5360    12.1980 ha         1 A5B       0.151000
     51 H15         -0.8230    -6.4420    13.1470 ha         1 A5B       0.143000
     52 H16         -2.3550    -7.3930    11.4690 ha         1 A5B       0.133000
     53 H17         -2.3980    -6.4990     9.1760 ha         1 A5B       0.141000
     54 H18         -1.6050    -6.1920     7.2790 h1         1 A5B       0.044700
     55 H19         -1.7430    -4.6580     6.4090 h1         1 A5B       0.044700
     56 H20         -2.8390    -5.0160     7.7510 h1         1 A5B       0.044700
@<TRIPOS>BOND
     1    16    15 ar
     2    16    17 ar
     3    15    13 ar
     4    18    17 1
     5    18    19 1
     6    17    20 ar
     7    13    12 1
     8    13    14 ar
     9    12    11 1
    10    20    14 ar
    11    20    21 1
    12    19    28 2
    13    37    36 1
    14    10    11 ar
    15    10     9 ar
    16    11     4 ar
    17    36    35 1
    18    21    22 ar
    19    21    27 ar
    20    22    23 ar
    21    28    27 1
    22    28    29 1
    23    27    26 ar
    24     9     5 ar
    25     4     3 ar
    26    23    24 ar
    27    26    24 ar
    28    35    29 ar
    29    35    34 ar
    30    29    30 ar
    31    24    25 1
    32     5     3 ar
    33     5     6 1
    34     3     2 1
    35    34    33 ar
    36     7     6 1
    37    30    31 1
    38    30    32 ar
    39     6     8 1
    40     2     1 1
    41    33    32 ar
    42     1    38 1
    43     1    39 1
    44     1    40 1
    45     4    41 1
    46     9    42 1
    47    10    43 1
    48    12    44 1
    49    16    45 1
    50    18    46 1
    51    18    47 1
    52    22    48 1
    53    23    49 1
    54    26    50 1
    55    32    51 1
    56    33    52 1
    57    34    53 1
    58    37    54 1
    59    37    55 1
    60    37    56 1
@<TRIPOS>SUBSTRUCTURE
     1 A5B         1 TEMP              0 ****  ****    0 ROOT
