@<TRIPOS>MOLECULE
molecule
   24    24     1     0     0
SMALL
bcc


@<TRIPOS>ATOM
      1 C1           0.0000     0.0000     0.0000 c3         1 A5C       0.114400
      2 C2           1.5290     0.0000     0.0000 c3         1 A5C       0.157100
      3 C4           3.5780     1.3350    -0.6240 c3         1 A5C       0.109100
      4 C5           3.8610     2.8460    -0.4590 c3         1 A5C       0.107100
      5 O1          -0.4770    -1.2200     0.5690 oh         1 A5C      -0.620800
      6 O2           2.0050     0.0000     1.3480 oh         1 A5C      -0.594800
      7 O4           4.1840     0.8400    -1.8190 oh         1 A5C      -0.579800
      8 C6           2.4590     3.4940    -0.4770 c3         1 A5C       0.316900
      9 O5           4.6500     3.3290    -1.5490 oh         1 A5C      -0.578800
     10 C40          2.0400     1.2500    -0.7200 c3         1 A5C       0.135100
     11 O3           1.5610     2.4410    -0.0610 os         1 A5C      -0.417600
     12 H11C        -0.3610     0.8370     0.5860 h1         1 A5C       0.040200
     13 H12C        -0.3610     0.0900    -1.0170 h1         1 A5C       0.040200
     14 H2           1.8910    -0.8840    -0.5110 h1         1 A5C       0.049700
     15 H1          -1.4120    -1.2730     0.4610 ho         1 A5C       0.408000
     16 HA           2.0850    -0.8890     1.6530 ho         1 A5C       0.411000
     17 H40          1.7290     1.2470    -1.7580 h1         1 A5C       0.073700
     18 H4           3.9320     0.7890     0.2420 h1         1 A5C       0.068700
     19 H5           4.3530     3.0370     0.4870 h1         1 A5C       0.068700
     20 HB           4.8620     0.2240    -1.5960 ho         1 A5C       0.403000
     21 H6           2.2110     3.8230    -1.4790 h2         1 A5C       0.056700
     22 H5L          5.3900     3.8080    -1.2140 ho         1 A5C       0.405000
     23 O6           2.4050     4.5870     0.4420 oh         1 A5C      -0.587800
     24 HC           1.6940     5.1600     0.2080 ho         1 A5C       0.414000
@<TRIPOS>BOND
     1     1     2 1
     2     1     5 1
     3     2     6 1
     4     2    10 1
     5     3     4 1
     6     3     7 1
     7     3    10 1
     8    10    11 1
     9     4     8 1
    10     4     9 1
    11    11     8 1
    12     8    23 1
    13     9    22 1
    14     1    12 1
    15     1    13 1
    16     2    14 1
    17     5    15 1
    18     6    16 1
    19    10    17 1
    20     3    18 1
    21     4    19 1
    22     7    20 1
    23     8    21 1
    24    23    24 1
@<TRIPOS>SUBSTRUCTURE
     1 A5C         1 TEMP              0 ****  ****    0 ROOT
