@<TRIPOS>MOLECULE
A5C
   24    22     1     0     0
SMALL
bcc


@<TRIPOS>ATOM
      1 C1          0.7890   -0.7310   -1.4630 c2        1 A5C      0.030100
      2 C2          1.1260    0.1380   -0.4850 c2        1 A5C     -0.087100
      3 C4          3.3680    0.4400    0.5750 c3        1 A5C      0.117400
      4 C5          2.8530    3.9880   -1.6510 c2        1 A5C      0.033100
      5 O1         -0.3470   -1.4900   -1.4570 oh        1 A5C     -0.494100
      6 O2          0.2820    0.2530    0.6080 oh        1 A5C     -0.523100
      7 O4          4.7020    0.6960    0.2030 oh        1 A5C     -0.600800
      8 C6          2.8720    3.2780   -0.5050 c2        1 A5C      0.074200
      9 O5          2.0390    3.6940   -2.7080 oh        1 A5C     -0.487100
     10 C40         2.3820    0.9470   -0.4880 c3        1 A5C      0.140300
     11 O3          1.9640    2.2990   -0.1680 os        1 A5C     -0.393900
     12 H11C        1.4950    2.3790    2.2640 ha        1 A5C      0.002500
     13 H12C        1.4080   -0.9570   -2.3440 h4        1 A5C      0.175000
     14 H2          1.1220    2.9240    2.1100 ha        1 A5C      0.002500
     15 H1         -0.8810   -1.2490   -0.6820 ho        1 A5C      0.434000
     16 HA          0.2560    1.1930    0.8460 ho        1 A5C      0.432000
     17 H40         3.3000   -0.6780    0.6570 h1        1 A5C      0.062200
     18 H4          2.8680    0.9360   -1.5020 h1        1 A5C      0.074700
     19 H5          3.1240    0.9140    1.5630 h1        1 A5C      0.062200
     20 HB          4.8370    1.6540    0.2370 ho        1 A5C      0.418000
     21 H6          3.5130    4.8400   -1.8680 h4        1 A5C      0.193000
     22 H5L         1.4180    2.9970   -2.4420 ho        1 A5C      0.427000
     23 O6          3.7540    3.4990    0.5220 oh        1 A5C     -0.525100
     24 HC          3.2280    3.5660    1.3360 ho        1 A5C      0.432000
@<TRIPOS>BOND
     1    1    2 2   
     2    1    5 1   
     3    1   13 1   
     4    2    6 1   
     5    2   10 1   
     6    3    7 1   
     7    3   10 1   
     8    3   17 1   
     9    3   19 1   
    10    4    8 2   
    11    4    9 1   
    12    4   21 1   
    13    5   15 1   
    14    6   16 1   
    15    7   20 1   
    16    8   11 1   
    17    8   23 1   
    18    9   22 1   
    19   10   11 1   
    20   10   18 1   
    21   12   14 1   
    22   23   24 1   
@<TRIPOS>SUBSTRUCTURE
     1 A5C         1 TEMP              0 ****  ****    0 ROOT
