@<TRIPOS>MOLECULE
A5D
   46    45     1     0     0
SMALL
bcc


@<TRIPOS>ATOM
      1 N1         -0.6690   -2.7910    2.8060 n2        1 A5D     -0.340000
      2 C2         -0.7390   -3.9730    2.8370 c1        1 A5D      0.160000
      3 N3          2.3120   -2.5220    3.6480 n2        1 A5D     -0.240000
      4 C4          1.9030   -1.3200    3.4670 c2        1 A5D      0.108000
      5 C5          0.5520   -0.7400    3.0660 c2        1 A5D     -0.025000
      6 C6         -0.6100   -1.4010    2.7640 c2        1 A5D      0.087000
      7 N6         -1.7690   -0.6470    2.4000 n3        1 A5D     -0.306000
      8 N7          0.7300    0.6680    3.0600 n3        1 A5D     -0.271000
      9 C8          2.0130    1.0190    3.3960 c1        1 A5D      0.115000
     10 N9          2.7420   -0.1420    3.6120 n3        1 A5D     -0.274000
     11 OAB         7.2280    2.7430    3.3180 oh        1 A5D     -0.366000
     12 OAC         4.9150    1.3160    2.4710 oh        1 A5D     -0.210000
     13 CAD         3.0390   -3.7680    9.1870 c2        1 A5D      0.199000
     14 CAE         4.0450   -3.0330    8.7720 c1        1 A5D     -0.986000
     15 CAF         2.4400   -4.8260    8.4030 c2        1 A5D     -0.484000
     16 CAG         9.0630   -3.7960   10.6200 c2        1 A5D     -0.206000
     17 CAH         1.4470   -5.6240    8.7370 c1        1 A5D      0.244000
     18 CAK         6.9830   -2.5610   11.1550 c3        1 A5D     -0.113000
     19 OAP         3.9730   -0.0290    5.6050 os        1 A5D     -0.174000
     20 SAQ         6.4130   -1.3420    9.9850 ss        1 A5D     -0.604000
     21 SAR         5.1960   -2.2450    8.3950 s4        1 A5D      1.461000
     22 CAS         7.7450   -3.6410   10.5040 c2        1 A5D     -0.167000
     23 CAW         7.3780    4.0550    3.8150 c3        1 A5D     -0.069000
     24 CAX         5.0420    0.9370    3.7170 c1        1 A5D      0.024000
     25 CAY         4.7020   -0.9040    6.2660 c1        1 A5D      0.002000
     26 CAZ         4.0750   -0.1670    4.1340 c3        1 A5D      0.108000
     27 H2          1.6570   -3.2560    3.5050 hn        1 A5D      0.178000
     28 HN6        -2.0790   -0.8780    1.4750 hn        1 A5D      0.176000
     29 HN6A       -2.5140   -0.7860    3.0570 hn        1 A5D      0.176000
     30 H8          0.0080    1.3000    2.8190 hn        1 A5D      0.279000
     31 HOAB        7.0050    2.1710    4.0690 ho        1 A5D      0.227000
     32 HOAC        5.6090    1.9860    2.2790 ho        1 A5D      0.293000
     33 HAE         9.6920   -3.1190   11.2130 ha        1 A5D      0.113000
     34 HAF         2.8810   -4.9780    7.3900 ha        1 A5D      0.213000
     35 HAG         9.6010   -4.6120   10.1210 ha        1 A5D      0.113000
     36 HAH         7.1470   -4.3380    9.8940 ha        1 A5D      0.112000
     37 HAK         6.0980   -2.9760   11.6970 h1        1 A5D      0.104500
     38 HAKA        7.6080   -1.9860   11.8830 h1        1 A5D      0.104500
     39 HAW         8.2000    4.1000    4.5720 h1        1 A5D      0.070667
     40 HAX         7.6410    4.6800    2.9250 h1        1 A5D      0.070667
     41 HAY         6.4240    4.4180    4.2720 h1        1 A5D      0.070667
     42 HAZ         4.5790   -1.1620    3.9100 h2        1 A5D      0.172000
     43 CAL         4.6160   -0.7280    7.7360 c3        1 A5D     -0.606000
     44 HAD         2.5960   -3.6100   10.1910 ha        1 A5D      0.119000
     45 HAL         3.6110   -0.4050    8.1000 h1        1 A5D      0.170500
     46 HALA        5.3440    0.0760    8.0490 h1        1 A5D      0.170500
@<TRIPOS>BOND
     1    1    2 1   
     2    1    6 1   
     3    3    4 1   
     4    3   27 1   
     5    4    5 1   
     6    4   10 1   
     7    5    6 1   
     8    5    8 1   
     9    6    7 1   
    10    7   28 1   
    11    7   29 1   
    12    8    9 1   
    13    8   30 1   
    14    9   10 1   
    15   10   26 1   
    16   11   23 1   
    17   11   31 1   
    18   12   24 1   
    19   12   32 1   
    20   13   14 1   
    21   13   15 1   
    22   13   44 1   
    23   14   21 1   
    24   15   17 1   
    25   15   34 1   
    26   16   22 1   
    27   16   33 1   
    28   16   35 1   
    29   18   20 1   
    30   18   22 1   
    31   18   37 1   
    32   18   38 1   
    33   19   25 1   
    34   19   26 1   
    35   20   21 1   
    36   21   43 1   
    37   22   36 1   
    38   23   39 1   
    39   23   40 1   
    40   23   41 1   
    41   24   26 1   
    42   25   43 1   
    43   26   42 1   
    44   43   45 1   
    45   43   46 1   
@<TRIPOS>SUBSTRUCTURE
     1 A5D         1 TEMP              0 ****  ****    0 ROOT
