@<TRIPOS>MOLECULE
molecule
   46    49     1     0     0
SMALL
bcc


@<TRIPOS>ATOM
      1 N1           0.0000     0.0000     0.0000 nb         1 A5D      -0.834000
      2 C2           1.3210     0.0000     0.0000 ca         1 A5D       0.739900
      3 N3           2.0280     0.0000     1.1110 nb         1 A5D      -0.787000
      4 C4           1.4260     0.0020     2.2960 ca         1 A5D       0.473800
      5 C5           0.0220     0.0020     2.3500 ca         1 A5D      -0.211200
      6 C6          -0.6880     0.0010     1.1370 ca         1 A5D       0.788200
      7 N6          -2.0720     0.0020     1.1270 nv         1 A5D      -0.987500
      8 N7          -0.3280     0.0020     3.6580 nc         1 A5D      -0.587100
      9 C8           0.7470     0.0020     4.3940 cd         1 A5D       0.427700
     10 N9           1.8540     0.0020     3.6000 na         1 A5D      -0.262000
     11 OAB          6.1410     1.5840     5.0610 oh         1 A5D      -0.566800
     12 OAC          4.4820     1.8930     3.1540 oh         1 A5D      -0.558800
     13 CAD          6.3490    -4.4170    12.2840 ca         1 A5D      -0.134000
     14 CAE          7.0890    -5.2070    11.4250 ca         1 A5D      -0.121500
     15 CAF          6.1020    -3.0950    11.9660 ca         1 A5D      -0.121500
     16 CAG          7.5830    -4.6750    10.2480 ca         1 A5D      -0.123000
     17 CAH          6.5950    -2.5630    10.7890 ca         1 A5D      -0.123000
     18 CAK          7.9290    -2.7020     8.1220 c3         1 A5D       0.035000
     19 OAP          3.5360    -0.8100     5.2280 os         1 A5D      -0.397600
     20 SAQ          6.8030    -2.9930     6.7300 ss         1 A5D      -0.141100
     21 SAR          4.9800    -2.4440     7.4900 ss         1 A5D      -0.129100
     22 CAS          7.3360    -3.3530     9.9310 ca         1 A5D      -0.081300
     23 CAW          4.8360     1.1560     5.4580 c3         1 A5D       0.089100
     24 CAX          3.8280     1.3510     4.3030 c3         1 A5D       0.097100
     25 CAY          4.8200    -0.3660     5.7190 c3         1 A5D       0.121100
     26 CAZ          3.3230    -0.0770     4.0020 c3         1 A5D       0.261800
     27 H2           1.8430    -0.0010    -0.9500 h5         1 A5D       0.062100
     28 HN6         -2.5780     0.2280     1.9610 hn         1 A5D       0.449800
     29 HN6A        -2.5670    -0.1910     0.2790 hn         1 A5D       0.449800
     30 H8           0.7580     0.0020     5.4770 h5         1 A5D       0.082800
     31 HOAB         6.4970     2.1600     5.7170 ho         1 A5D       0.402000
     32 HOAC         4.2490     2.8020     3.0590 ho         1 A5D       0.409000
     33 HAE          7.2830    -6.2440    11.6750 ha         1 A5D       0.132500
     34 HAF          5.5210    -2.4750    12.6390 ha         1 A5D       0.132500
     35 HAG          8.1640    -5.2950     9.5750 ha         1 A5D       0.131000
     36 HAH          6.4010    -1.5270    10.5400 ha         1 A5D       0.131000
     37 HAK          7.7650    -1.7060     8.5160 h1         1 A5D       0.073700
     38 HAKA         8.9530    -2.7920     7.7820 h1         1 A5D       0.073700
     39 HAW          4.5070     1.6930     6.3400 h1         1 A5D       0.047700
     40 HAX          3.0090     1.9870     4.6160 h1         1 A5D       0.058700
     41 HAY          5.6190    -0.8490     5.1690 h1         1 A5D       0.092700
     42 HAZ          3.8990    -0.5170     3.1980 h2         1 A5D       0.121700
     43 CAL          4.9460    -0.6510     7.2160 c3         1 A5D      -0.015300
     44 HAD          5.9620    -4.8330    13.2060 ha         1 A5D       0.131000
     45 HAL          5.8620    -0.2110     7.5920 h1         1 A5D       0.083200
     46 HALA         4.0990    -0.2220     7.7380 h1         1 A5D       0.083200
@<TRIPOS>BOND
     1     1     2 ar
     2     1     6 ar
     3     2     3 ar
     4     3     4 ar
     5     4     5 ar
     6     4    10 1
     7     5     6 ar
     8     5     8 1
     9     6     7 1
    10     8     9 2
    11     9    10 1
    12    10    26 1
    13    11    23 1
    14    12    24 1
    15    13    14 ar
    16    13    15 ar
    17    14    16 ar
    18    15    17 ar
    19    16    22 ar
    20    17    22 ar
    21    18    20 1
    22    18    22 1
    23    43    21 1
    24    43    25 1
    25    19    25 1
    26    19    26 1
    27    20    21 1
    28    23    24 1
    29    23    25 1
    30    24    26 1
    31     2    27 1
    32     7    28 1
    33     7    29 1
    34     9    30 1
    35    11    31 1
    36    12    32 1
    37    13    44 1
    38    14    33 1
    39    15    34 1
    40    16    35 1
    41    17    36 1
    42    18    37 1
    43    18    38 1
    44    43    45 1
    45    43    46 1
    46    23    39 1
    47    24    40 1
    48    25    41 1
    49    26    42 1
@<TRIPOS>SUBSTRUCTURE
     1 A5D         1 TEMP              0 ****  ****    0 ROOT
