@<TRIPOS>MOLECULE
molecule
   20    21     1     0     0
SMALL
bcc


@<TRIPOS>ATOM
      1 C7           0.0000     0.0000     0.0000 cc         1 A5E      -0.062100
      2 C4           1.0390     0.0100     2.2850 cc         1 A5E      -0.085000
      3 C5           1.9230     0.0000     1.2470 cd         1 A5E      -0.111000
      4 C6           1.3370     0.0000     0.0000 cd         1 A5E      -0.161000
      5 C3           1.4010     0.0120     3.7070 ce         1 A5E       0.435900
      6 C2           0.3120     0.0170     4.7470 c3         1 A5E      -0.157700
      7 C1           0.7660    -0.7780     5.9720 c3         1 A5E      -0.155400
      8 C            2.1620    -0.3500     6.3500 c          1 A5E       0.674500
      9 N1           3.0430    -0.0250     5.3870 ns         1 A5E      -0.333900
     10 N            2.6500     0.0050     4.0450 n2         1 A5E      -0.451300
     11 S           -0.6020     0.0070     1.6530 ss         1 A5E      -0.136800
     12 H1          -0.6210    -0.0020    -0.8880 h4         1 A5E       0.174000
     13 H2           2.9970    -0.0000     1.3900 ha         1 A5E       0.167000
     14 H3           1.9170    -0.0050    -0.9150 ha         1 A5E       0.153000
     15 H4           0.1000     1.0390     5.0400 hc         1 A5E       0.070700
     16 H5           0.0920    -0.5830     6.7980 hc         1 A5E       0.083200
     17 H6           3.9880     0.1970     5.6320 hn         1 A5E       0.367500
     18 H7          -0.5810    -0.4370     4.3340 hc         1 A5E       0.070700
     19 H8           0.7630    -1.8350     5.7370 hc         1 A5E       0.083200
     20 O            2.4890    -0.3010     7.5180 o          1 A5E      -0.623500
@<TRIPOS>BOND
     1    20     8 2
     2     7     8 1
     3     7     6 1
     4     8     9 1
     5     6     5 1
     6     9    10 1
     7     5    10 2
     8     5     2 1
     9    11     2 1
    10    11     1 1
    11     2     3 2
    12     1     4 2
    13     3     4 1
    14     1    12 1
    15     3    13 1
    16     4    14 1
    17     6    15 1
    18     7    16 1
    19     9    17 1
    20     6    18 1
    21     7    19 1
@<TRIPOS>SUBSTRUCTURE
     1 A5E         1 TEMP              0 ****  ****    0 ROOT
