@<TRIPOS>MOLECULE
molecule
   51    52     1     0     0
SMALL
bcc


@<TRIPOS>ATOM
      1 C10          0.0000     0.0000     0.0000 cx         1 A5F      -0.105400
      2 C8           1.5310     0.0000     0.0000 cx         1 A5F      -0.111700
      3 C9           0.7650     0.0000     1.3260 cx         1 A5F      -0.058600
      4 C11          2.2370     1.2950    -0.4080 c3         1 A5F       0.172400
      5 C12          0.7650    -1.2450     2.1110 c1         1 A5F      -0.043100
      6 C13          3.5830   -13.1460     5.7010 c3         1 A5F       0.128200
      7 C14          4.0930   -12.0730     6.4570 c3         1 A5F      -0.020300
      8 C15          0.7560    -2.2270     2.7520 cg         1 A5F      -0.069000
      9 C16          1.9770   -13.0220     6.0810 c3         1 A5F      -0.099600
     10 C17          3.6180   -13.1850     4.1930 c3         1 A5F      -0.099600
     11 C18          5.8500   -12.0390     6.2660 c          1 A5F       0.564100
     12 C20          0.5440    -3.5180     3.6820 cg         1 A5F      -0.001000
     13 C21          2.2780    -8.6560     5.8210 ca         1 A5F      -0.225600
     14 C22          1.3810    -7.7940     6.1790 ca         1 A5F      -0.054500
     15 C23          3.0420    -7.9410     4.3350 ca         1 A5F      -0.054500
     16 C24          1.7020    -6.2900     4.5730 ca         1 A5F       0.156000
     17 C25          0.8290    -4.9720     4.0140 ch         1 A5F      -0.186000
     18 C26          1.0480    -6.6110     5.6080 ca         1 A5F      -0.131000
     19 C27          2.6850    -6.8100     3.8350 ca         1 A5F      -0.131000
     20 N5           3.7810   -10.6470     5.5130 ns         1 A5F      -0.582900
     21 O1           2.9870     1.0710    -1.6030 oh         1 A5F      -0.605800
     22 O2           6.1310   -11.8510     4.9110 o          1 A5F      -0.608100
     23 O04          7.7310   -12.9280     7.0510 oh         1 A5F      -0.351100
     24 H1          -0.4680     0.9390    -0.2700 hc         1 A5F       0.085700
     25 H2          -0.4680    -0.9390    -0.2700 hc         1 A5F       0.085700
     26 H3           1.9980    -0.9390    -0.2700 hc         1 A5F       0.104700
     27 H4           0.7650     0.9390     1.8650 hc         1 A5F       0.103700
     28 H5           1.4970     2.0590    -0.6160 h1         1 A5F       0.026700
     29 H6           2.8800     1.6250     0.3990 h1         1 A5F       0.026700
     30 H7           3.7460   -12.0180     7.4820 h1         1 A5F       0.116700
     31 H8           1.5290   -12.2250     5.5000 hc         1 A5F       0.079200
     32 H9           1.4790   -13.9570     5.8560 hc         1 A5F       0.079200
     33 H10          1.8710   -12.8020     7.1370 hc         1 A5F       0.079200
     34 H11          2.9030   -13.9150     3.8340 hc         1 A5F       0.079200
     35 H12          3.3640   -12.2080     3.8000 hc         1 A5F       0.079200
     36 H13          4.6120   -13.4590     3.8610 hc         1 A5F       0.079200
     37 H14          0.7130    -8.1220     6.9670 ha         1 A5F       0.134500
     38 H15          3.7600    -8.5340     3.7810 ha         1 A5F       0.134500
     39 H16          0.5540    -5.8460     6.1940 ha         1 A5F       0.182500
     40 H17          3.2020    -6.4530     2.9530 ha         1 A5F       0.182500
     41 H18          4.5420   -10.1340     5.1130 hn         1 A5F       0.336500
     42 H19          3.9790   -14.4280     7.2340 hn         1 A5F       0.450467
     43 H20          4.8860   -14.7000     5.9020 hn         1 A5F       0.450467
     44 H22          5.9710   -13.1180     7.9340 hn         1 A5F       0.320500
     45 H23          3.4220     1.8680    -1.8560 ho         1 A5F       0.408000
     46 H24          8.0970   -13.0310     7.9140 ho         1 A5F       0.427000
     47 N6           3.9720   -14.4620     6.2340 nz         1 A5F      -0.816600
     48 H63          3.3160   -15.1530     5.9280 hn         1 A5F       0.450467
     49 C19          2.6510    -9.9180     6.1680 c          1 A5F       0.728700
     50 N7           6.4670   -12.7630     7.1400 ns         1 A5F      -0.340400
     51 O3           2.3570   -10.3940     7.1530 o          1 A5F      -0.555100
@<TRIPOS>BOND
     1    21     4 1
     2     4     2 1
     3     2     1 1
     4     2     3 1
     5     1     3 1
     6     3     5 1
     7     5     8 3
     8     8    12 1
     9    12    17 3
    10    17    16 1
    11    19    16 ar
    12    19    15 ar
    13    16    18 ar
    14    15    13 ar
    15    18    14 ar
    16    13    14 ar
    17    13    49 1
    18    10     6 1
    19    20    49 1
    20    20     7 1
    21    22    11 2
    22    49    51 2
    23     6    47 1
    24     6     7 1
    25     6     9 1
    26     7    11 1
    27    11    50 1
    28    50    23 1
    29     1    24 1
    30     1    25 1
    31     2    26 1
    32     3    27 1
    33     4    28 1
    34     4    29 1
    35     7    30 1
    36     9    31 1
    37     9    32 1
    38     9    33 1
    39    10    34 1
    40    10    35 1
    41    10    36 1
    42    14    37 1
    43    15    38 1
    44    18    39 1
    45    19    40 1
    46    20    41 1
    47    47    42 1
    48    47    43 1
    49    50    44 1
    50    21    45 1
    51    23    46 1
    52    48    47 1
@<TRIPOS>SUBSTRUCTURE
     1 A5F         1 TEMP              0 ****  ****    0 ROOT
