@<TRIPOS>MOLECULE
A5F
   51    52     1     0     0
SMALL
bcc


@<TRIPOS>ATOM
      1 C10          0.0000     0.0000     0.0000 cx         1 A5F      -0.057400
      2 C8           1.5310     0.0000     0.0000 cx         1 A5F      -0.105700
      3 C9           0.7650     0.0000     1.3260 cx         1 A5F       0.000400
      4 C11          2.2370     1.2950    -0.4080 c3         1 A5F       0.262400
      5 C12          0.7650    -1.2450     2.1110 c1         1 A5F      -0.061100
      6 C13          3.5830   -13.1460     5.7010 c3         1 A5F      -0.057800
      7 C14          4.0930   -12.0730     6.4570 c3         1 A5F      -0.097300
      8 C15          0.7560    -2.2270     2.7520 cg         1 A5F      -0.057000
      9 C16          1.9770   -13.0220     6.0810 c3         1 A5F      -0.003600
     10 C17          3.6180   -13.1850     4.1930 c3         1 A5F      -0.003600
     11 C18          5.8500   -12.0390     6.2660 c          1 A5F       0.415100
     12 C20          0.5440    -3.5180     3.6820 cg         1 A5F       0.037000
     13 C21          2.2780    -8.6560     5.8210 ca         1 A5F      -0.233600
     14 C22          1.3810    -7.7940     6.1790 ca         1 A5F      -0.022500
     15 C23          3.0420    -7.9410     4.3350 ca         1 A5F      -0.022500
     16 C24          1.7020    -6.2900     4.5730 ca         1 A5F       0.182000
     17 C25          0.8290    -4.9720     4.0140 ch         1 A5F      -0.208000
     18 C26          1.0480    -6.6110     5.6080 ca         1 A5F      -0.115500
     19 C27          2.6850    -6.8100     3.8350 ca         1 A5F      -0.115500
     20 N5           3.7810   -10.6470     5.5130 ns         1 A5F      -0.311900
     21 O1           2.9870     1.0710    -1.6030 oh         1 A5F      -0.590800
     22 O2           6.1310   -11.8510     4.9110 o          1 A5F      -0.640100
     23 O04          7.7310   -12.9280     7.0510 oh         1 A5F      -0.438100
     24 H1          -0.4680     0.9390    -0.2700 hc         1 A5F       0.051700
     25 H2          -0.4680    -0.9390    -0.2700 hc         1 A5F       0.051700
     26 H3           1.9980    -0.9390    -0.2700 hc         1 A5F       0.074700
     27 H4           0.7650     0.9390     1.8650 hc         1 A5F       0.067700
     28 H5           1.4970     2.0590    -0.6160 h1         1 A5F      -0.011800
     29 H6           2.8800     1.6250     0.3990 h1         1 A5F      -0.011800
     30 H7           3.7460   -12.0180     7.4820 h1         1 A5F       0.093700
     31 H8           1.5290   -12.2250     5.5000 hc         1 A5F       0.043700
     32 H9           1.4790   -13.9570     5.8560 hc         1 A5F       0.043700
     33 H10          1.8710   -12.8020     7.1370 hc         1 A5F       0.043700
     34 H11          2.9030   -13.9150     3.8340 hc         1 A5F       0.043700
     35 H12          3.3640   -12.2080     3.8000 hc         1 A5F       0.043700
     36 H13          4.6120   -13.4590     3.8610 hc         1 A5F       0.043700
     37 H14          0.7130    -8.1220     6.9670 ha         1 A5F       0.097500
     38 H15          3.7600    -8.5340     3.7810 ha         1 A5F       0.097500
     39 H16          0.5540    -5.8460     6.1940 ha         1 A5F       0.152000
     40 H17          3.2020    -6.4530     2.9530 ha         1 A5F       0.152000
     41 H18          4.5420   -10.1340     5.1130 hn         1 A5F       0.230500
     42 H19          3.9790   -14.4280     7.2340 hn         1 A5F       0.225467
     43 H20          4.8860   -14.7000     5.9020 hn         1 A5F       0.225467
     44 H22          5.9710   -13.1180     7.9340 hn         1 A5F       0.128500
     45 H23          3.4220     1.8680    -1.8560 ho         1 A5F       0.393000
     46 H24          8.0970   -13.0310     7.9140 ho         1 A5F       0.422000
     47 N6           3.9720   -14.4620     6.2340 nz         1 A5F       0.040400
     48 H63          3.3160   -15.1530     5.9280 hn         1 A5F       0.225467
     49 C19          2.6510    -9.9180     6.1680 c          1 A5F       0.709700
     50 N7           6.4670   -12.7630     7.1400 ns         1 A5F       0.165600
     51 O3           2.3570   -10.3940     7.1530 o          1 A5F      -0.599100
@<TRIPOS>BOND
     1     1     2 1   
     2     1     3 1   
     3     1    24 1   
     4     1    25 1   
     5     2     3 1   
     6     2     4 1   
     7     2    26 1   
     8     3     5 1   
     9     3    27 1   
    10     4    21 1   
    11     4    28 1   
    12     4    29 1   
    13     5     8 3   
    14     6     7 1   
    15     6     9 1   
    16     6    10 1   
    17     6    47 1   
    18     7    11 1   
    19     7    20 1   
    20     7    30 1   
    21     8    12 1   
    22     9    31 1   
    23     9    32 1   
    24     9    33 1   
    25    10    34 1   
    26    10    35 1   
    27    10    36 1   
    28    11    22 2   
    29    11    50 1   
    30    12    17 3   
    31    13    14 ar  
    32    13    15 ar  
    33    13    49 1   
    34    14    18 ar  
    35    14    37 1   
    36    15    19 ar  
    37    15    38 1   
    38    16    17 1   
    39    16    18 ar  
    40    16    19 ar  
    41    18    39 1   
    42    19    40 1   
    43    20    41 1   
    44    20    49 1   
    45    21    45 1   
    46    23    46 1   
    47    23    50 1   
    48    42    47 1   
    49    43    47 1   
    50    44    50 1   
    51    47    48 1   
    52    49    51 2   
@<TRIPOS>SUBSTRUCTURE
     1 A5F         1 TEMP              0 ****  ****    0 ROOT
