@<TRIPOS>MOLECULE
molecule
   24    26     1     0     0
SMALL
bcc


@<TRIPOS>ATOM
      1 C10          0.0000     0.0000     0.0000 c3         1 A5H       0.015300
      2 C9           1.5370     0.0000     0.0000 c3         1 A5H       0.105800
      3 C8           0.8110     0.0000     2.1560 cc         1 A5H       0.174600
      4 C7          -1.4080     0.0000     3.5280 cd         1 A5H      -0.123100
      5 C4          -2.9440     0.0010     0.1590 ca         1 A5H      -0.105500
      6 C5          -4.1850     0.0020    -0.4420 ca         1 A5H      -0.121000
      7 C6          -1.5180    -0.0000     2.2020 cc         1 A5H       0.063700
      8 C3          -2.8450     0.0000     1.5510 ca         1 A5H      -0.041000
      9 C2          -4.0050    -0.0010     2.3270 ca         1 A5H      -0.105500
     10 C1          -5.2410     0.0000     1.7130 ca         1 A5H      -0.121000
     11 C           -5.3330     0.0070     0.3320 ca         1 A5H       0.037400
     12 N1          -0.3540     0.0000     1.4440 na         1 A5H      -0.212100
     13 N            1.8930     0.0000     1.4210 n2         1 A5H      -0.340200
     14 S            0.3300     0.0010     3.8670 ss         1 A5H      -0.178800
     15 H1          -0.3670     0.9050    -0.4690 h1         1 A5H       0.062200
     16 H2           1.9040     0.9050    -0.4700 h1         1 A5H       0.072700
     17 H3          -2.0770     0.6070     4.1270 h4         1 A5H       0.193000
     18 H4          -2.0470    -0.0030    -0.4490 ha         1 A5H       0.146500
     19 H5          -4.2620     0.0050    -1.5230 ha         1 A5H       0.149000
     20 H6          -3.9360    -0.0040     3.4080 ha         1 A5H       0.146500
     21 H7          -6.1420     0.0020     2.3140 ha         1 A5H       0.149000
     22 H8          -0.3670    -0.9050    -0.4680 h1         1 A5H       0.062200
     23 H9           1.9040    -0.9050    -0.4700 h1         1 A5H       0.072700
     24 Cl          -6.8910     0.0080    -0.4320 cl         1 A5H      -0.100400
@<TRIPOS>BOND
     1     2    13 1
     2     2     1 1
     3    13     3 2
     4     1    12 1
     5     3    12 1
     6     3    14 1
     7    12     7 1
     8    14     4 1
     9     7     4 2
    10     7     8 1
    11     8     9 ar
    12     8     5 ar
    13     9    10 ar
    14     5     6 ar
    15    10    11 ar
    16    11     6 ar
    17    11    24 1
    18     1    15 1
    19     2    16 1
    20     4    17 1
    21     5    18 1
    22     6    19 1
    23     9    20 1
    24    10    21 1
    25     1    22 1
    26     2    23 1
@<TRIPOS>SUBSTRUCTURE
     1 A5H         1 TEMP              0 ****  ****    0 ROOT
