@<TRIPOS>MOLECULE
A5H
   24    26     1     0     0
SMALL
bcc


@<TRIPOS>ATOM
      1 C10          0.0000     0.0000     0.0000 c3         1 A5H      -0.045700
      2 C9           1.5370     0.0000     0.0000 c3         1 A5H       0.163800
      3 C8           0.8110     0.0000     2.1560 cc         1 A5H       0.070600
      4 C7          -1.4080     0.0000     3.5280 cc         1 A5H      -0.044100
      5 C4          -2.9440     0.0010     0.1590 ca         1 A5H      -0.091000
      6 C5          -4.1850     0.0020    -0.4420 ca         1 A5H      -0.092500
      7 C6          -1.5180    -0.0000     2.2020 cd         1 A5H      -0.067300
      8 C3          -2.8450     0.0000     1.5510 ca         1 A5H      -0.041000
      9 C2          -4.0050    -0.0010     2.3270 ca         1 A5H      -0.091000
     10 C1          -5.2410     0.0000     1.7130 ca         1 A5H      -0.092500
     11 C           -5.3330     0.0070     0.3320 ca         1 A5H      -0.028600
     12 N1          -0.3540     0.0000     1.4440 na         1 A5H       0.178900
     13 N            1.8930     0.0000     1.4210 n2         1 A5H      -0.290200
     14 S            0.3300     0.0010     3.8670 ss         1 A5H      -0.301800
     15 H1          -0.3670     0.9050    -0.4690 h1         1 A5H       0.034700
     16 H2           1.9040     0.9050    -0.4700 h1         1 A5H       0.034200
     17 H3          -2.0770     0.6070     4.1270 h4         1 A5H       0.173000
     18 H4          -2.0470    -0.0030    -0.4490 ha         1 A5H       0.122000
     19 H5          -4.2620     0.0050    -1.5230 ha         1 A5H       0.117500
     20 H6          -3.9360    -0.0040     3.4080 ha         1 A5H       0.122000
     21 H7          -6.1420     0.0020     2.3140 ha         1 A5H       0.117500
     22 H8          -0.3670    -0.9050    -0.4680 h1         1 A5H       0.034700
     23 H9           1.9040    -0.9050    -0.4700 h1         1 A5H       0.034200
     24 Cl          -6.8910     0.0080    -0.4320 cl         1 A5H      -0.016400
@<TRIPOS>BOND
     1     1     2 1   
     2     1    12 1   
     3     1    15 1   
     4     1    22 1   
     5     2    13 1   
     6     2    16 1   
     7     2    23 1   
     8     3    12 1   
     9     3    13 2   
    10     3    14 1   
    11     4     7 2   
    12     4    14 1   
    13     4    17 1   
    14     5     6 ar  
    15     5     8 ar  
    16     5    18 1   
    17     6    11 ar  
    18     6    19 1   
    19     7     8 1   
    20     7    12 1   
    21     8     9 ar  
    22     9    10 ar  
    23     9    20 1   
    24    10    11 ar  
    25    10    21 1   
    26    11    24 1   
@<TRIPOS>SUBSTRUCTURE
     1 A5H         1 TEMP              0 ****  ****    0 ROOT
