@<TRIPOS>MOLECULE
molecule
   45    46     1     0     0
SMALL
bcc


@<TRIPOS>ATOM
      1 N            0.0000     0.0000     0.0000 nh         1 A5J      -0.102000
      2 C1           3.6780     0.0000     0.0000 ca         1 A5J      -0.242600
      3 C2           3.8980     0.0000     1.3690 ca         1 A5J       0.575600
      4 O2           5.1710     0.0010     1.8420 oh         1 A5J      -0.626300
      5 N3           2.8840     0.0010     2.2200 nb         1 A5J      -0.804000
      6 C4           1.6280     0.0010     1.8030 ca         1 A5J       0.655200
      7 N4           0.5910     0.0020     2.7340 nv         1 A5J      -1.070500
      8 C5           1.3330    -0.0000     0.4390 ca         1 A5J      -0.157700
      9 C6           2.3760    -0.0000    -0.4780 ca         1 A5J       0.005000
     10 C1'          4.8410     0.0060    -0.9590 c3         1 A5J       0.198400
     11 C2'          5.3140    -1.4410    -1.2510 c3         1 A5J      -0.129400
     12 C3'          5.9930    -1.2860    -2.6350 c3         1 A5J       0.098100
     13 O3'          7.4080    -1.1590    -2.4860 oh         1 A5J      -0.610800
     14 C4'          5.3890     0.0100    -3.2080 c3         1 A5J       0.122100
     15 O4'          4.4300     0.4980    -2.2520 os         1 A5J      -0.366600
     16 C5'          4.6940    -0.2850    -4.5400 c3         1 A5J       0.237400
     17 O5'          4.2400     0.9390    -5.1210 os         1 A5J      -0.587200
     18 ON1         -0.4980     1.3650    -0.1640 oh         1 A5J      -0.445800
     19 ON2         -0.1440    -0.7640    -1.2400 oh         1 A5J      -0.445800
     20 O1A          2.2790     0.1180    -6.4820 o          1 A5J      -0.861000
     21 O1B          0.4260     3.0530    -7.0660 o          1 A5J      -0.874000
     22 O1G          1.5790     5.2440   -10.3800 o          1 A5J      -0.856833
     23 O2A          4.4470     0.5240    -7.7090 o          1 A5J      -0.861000
     24 O2B          1.8560     2.4820    -9.0660 o          1 A5J      -0.874000
     25 O2G          0.2960     6.4430    -8.5690 o          1 A5J      -0.856833
     26 O3A          2.9880     2.5180    -6.8100 os         1 A5J      -0.724800
     27 O3B          2.2210     4.7370    -7.9920 os         1 A5J      -0.735800
     28 O3G          2.7990     7.0430    -9.1000 o          1 A5J      -0.856833
     29 PA           3.4630     1.0050    -6.5290 p5         1 A5J       1.449800
     30 PB           1.8730     3.1820    -7.7620 p5         1 A5J       1.519800
     31 PG           1.7170     5.8530    -9.0390 p5         1 A5J       1.340900
     32 H21          5.1660     0.2370     2.7550 ho         1 A5J       0.402000
     33 H41          0.1120    -0.8500     2.9490 hn         1 A5J       0.408800
     34 H42          0.3300     0.8530     3.1910 hn         1 A5J       0.408800
     35 H61          2.1810     0.2330    -1.5180 ha         1 A5J       0.207000
     36 H1'1         5.6590     0.6000    -0.5710 h1         1 A5J       0.049700
     37 H2'1         4.4690    -2.1170    -1.3110 hc         1 A5J       0.046700
     38 H2'2         6.0290    -1.7690    -0.5070 hc         1 A5J       0.046700
     39 H3'1         5.7470    -2.1280    -3.2700 h1         1 A5J       0.041700
     40 H3'2         7.8290    -1.9350    -2.8180 ho         1 A5J       0.378000
     41 H4'1         6.1710     0.7460    -3.3510 h1         1 A5J       0.067700
     42 H5'1         5.3930    -0.7680    -5.2130 h1         1 A5J       0.023200
     43 H5'2         3.8480    -0.9390    -4.3680 h1         1 A5J       0.023200
     44 HN11        -1.4350     1.3730    -0.0560 ho         1 A5J       0.391500
     45 HN21        -1.0300    -0.6880    -1.5540 ho         1 A5J       0.391500
@<TRIPOS>BOND
     1    22    31 1
     2    25    31 1
     3    31    28 1
     4    31    27 1
     5    24    30 1
     6    20    29 1
     7    27    30 1
     8    30    21 1
     9    30    26 1
    10    29    26 1
    11    29    23 1
    12    29    17 1
    13    16    17 1
    14    16    14 1
    15    13    12 1
    16    14    12 1
    17    14    15 1
    18    12    11 1
    19    15    10 1
    20    11    10 1
    21    10     2 1
    22    19     1 1
    23     9     2 ar
    24     9     8 ar
    25     2     3 ar
    26     1     8 1
    27     1    18 1
    28     8     6 ar
    29     3     4 1
    30     3     5 ar
    31     6     5 ar
    32     6     7 1
    33     4    32 1
    34     7    33 1
    35     7    34 1
    36     9    35 1
    37    10    36 1
    38    11    37 1
    39    11    38 1
    40    12    39 1
    41    13    40 1
    42    14    41 1
    43    16    42 1
    44    16    43 1
    45    18    44 1
    46    19    45 1
@<TRIPOS>SUBSTRUCTURE
     1 A5J         1 TEMP              0 ****  ****    0 ROOT
