@<TRIPOS>MOLECULE
molecule
   31    32     1     0     0
SMALL
bcc


@<TRIPOS>ATOM
      1 C10          0.0000     0.0000     0.0000 ca         1 A5K      -0.043000
      2 C9           1.3840     0.0000     0.0000 ca         1 A5K      -0.077900
      3 C8           3.9750    -1.2060     1.9130 c3         1 A5K       0.176800
      4 C7           5.3350    -1.5300     1.4880 c3         1 A5K       0.156800
      5 C4           3.9620     1.1870     1.8740 c3         1 A5K       0.177800
      6 C5           5.2370     1.7280     1.1940 c3         1 A5K      -0.065400
      7 C6           6.1940     0.5910     0.7880 c3         1 A5K       0.161800
      8 C3           2.0610     0.0000     1.2170 ca         1 A5K       0.639200
      9 C2           0.0730    -0.0060     2.3890 ca         1 A5K       0.477200
     10 C1          -0.6620    -0.0010     1.2210 ca         1 A5K      -0.310600
     11 Cl           2.2640    -0.0000    -1.4970 cl         1 A5K      -0.065400
     12 C           -2.1680     0.0050     1.2700 c3         1 A5K       0.681200
     13 F2          -2.5950     0.6640     2.4290 f          1 A5K      -0.220300
     14 F1          -2.6680     0.6700     0.1450 f          1 A5K      -0.220300
     15 F           -2.6390    -1.3120     1.2820 f          1 A5K      -0.220300
     16 N            1.3920     0.0000     2.3590 nb         1 A5K      -0.714000
     17 N1           3.4520     0.0000     1.2320 nh         1 A5K      -0.713300
     18 N2           6.2900    -0.4390     1.7930 n7         1 A5K      -0.817200
     19 H1          -0.5540     0.0020    -0.9310 ha         1 A5K       0.168000
     20 H3           3.9730    -1.0330     2.9820 h1         1 A5K       0.050700
     21 H4           5.6570    -2.4300     2.0000 h1         1 A5K       0.039700
     22 H5           5.3360    -1.7080     0.4190 h1         1 A5K       0.039700
     23 H6           3.1980     1.9540     1.8430 h1         1 A5K       0.047200
     24 H7           4.1900     0.9530     2.9070 h1         1 A5K       0.047200
     25 H8           4.9540     2.2820     0.3070 hc         1 A5K       0.045700
     26 H9           5.7490     2.3900     1.8820 hc         1 A5K       0.045700
     27 H10          5.8370     0.1470    -0.1330 h1         1 A5K       0.033200
     28 H11          7.1800     1.0080     0.6220 h1         1 A5K       0.033200
     29 H12         -0.4390    -0.0060     3.3440 h4         1 A5K       0.042100
     30 H13          7.2210    -0.8050     1.8080 hn         1 A5K       0.355800
     31 H2           3.3280    -2.0440     1.6860 h1         1 A5K       0.050700
@<TRIPOS>BOND
     1     7     6 1
     2     7    18 1
     3     6     5 1
     4     5    17 1
     5    18     4 1
     6     4     3 1
     7    17     3 1
     8    17     8 1
     9     8    16 ar
    10     8     2 ar
    11    16     9 ar
    12    11     2 1
    13     2     1 ar
    14     9    10 ar
    15     1    10 ar
    16    10    12 1
    17    13    12 1
    18    12    15 1
    19    12    14 1
    20     1    19 1
    21     3    31 1
    22     3    20 1
    23     4    21 1
    24     4    22 1
    25     5    23 1
    26     5    24 1
    27     6    25 1
    28     6    26 1
    29     7    27 1
    30     7    28 1
    31     9    29 1
    32    18    30 1
@<TRIPOS>SUBSTRUCTURE
     1 A5K         1 TEMP              0 ****  ****    0 ROOT
