@<TRIPOS>MOLECULE
A5K
   31    32     1     0     0
SMALL
bcc


@<TRIPOS>ATOM
      1 C10          0.0000     0.0000     0.0000 ca         1 A5K      -0.009000
      2 C9           1.3840     0.0000     0.0000 ca         1 A5K      -0.152900
      3 C8           3.9750    -1.2060     1.9130 c3         1 A5K       0.151800
      4 C7           5.3350    -1.5300     1.4880 c3         1 A5K       0.136800
      5 C4           3.9620     1.1870     1.8740 c3         1 A5K       0.151800
      6 C5           5.2370     1.7280     1.1940 c3         1 A5K      -0.013400
      7 C6           6.1940     0.5910     0.7880 c3         1 A5K       0.140800
      8 C3           2.0610     0.0000     1.2170 ca         1 A5K       0.524200
      9 C2           0.0730    -0.0060     2.3890 ca         1 A5K       0.472200
     10 C1          -0.6620    -0.0010     1.2210 ca         1 A5K      -0.332600
     11 Cl           2.2640    -0.0000    -1.4970 cl         1 A5K       0.033600
     12 C           -2.1680     0.0050     1.2700 c3         1 A5K       0.649200
     13 F2          -2.5950     0.6640     2.4290 f          1 A5K      -0.204967
     14 F1          -2.6680     0.6700     0.1450 f          1 A5K      -0.204967
     15 F           -2.6390    -1.3120     1.2820 f          1 A5K      -0.204967
     16 N            1.3920     0.0000     2.3590 nb         1 A5K      -0.601000
     17 N1           3.4520     0.0000     1.2320 nh         1 A5K      -0.509300
     18 N2           6.2900    -0.4390     1.7930 n7         1 A5K      -0.569200
     19 H1          -0.5540     0.0020    -0.9310 ha         1 A5K       0.133000
     20 H3           3.9730    -1.0330     2.9820 h1         1 A5K       0.023700
     21 H4           5.6570    -2.4300     2.0000 h1         1 A5K       0.013200
     22 H5           5.3360    -1.7080     0.4190 h1         1 A5K       0.013200
     23 H6           3.1980     1.9540     1.8430 h1         1 A5K       0.021200
     24 H7           4.1900     0.9530     2.9070 h1         1 A5K       0.021200
     25 H8           4.9540     2.2820     0.3070 hc         1 A5K       0.014200
     26 H9           5.7490     2.3900     1.8820 hc         1 A5K       0.014200
     27 H10          5.8370     0.1470    -0.1330 h1         1 A5K       0.008700
     28 H11          7.1800     1.0080     0.6220 h1         1 A5K       0.008700
     29 H12         -0.4390    -0.0060     3.3440 h4         1 A5K      -0.003900
     30 H13          7.2210    -0.8050     1.8080 hn         1 A5K       0.250800
     31 H2           3.3280    -2.0440     1.6860 h1         1 A5K       0.023700
@<TRIPOS>BOND
     1     1     2 ar  
     2     1    10 ar  
     3     1    19 1   
     4     2     8 ar  
     5     2    11 1   
     6     3     4 1   
     7     3    17 1   
     8     3    20 1   
     9     3    31 1   
    10     4    18 1   
    11     4    21 1   
    12     4    22 1   
    13     5     6 1   
    14     5    17 1   
    15     5    23 1   
    16     5    24 1   
    17     6     7 1   
    18     6    25 1   
    19     6    26 1   
    20     7    18 1   
    21     7    27 1   
    22     7    28 1   
    23     8    16 ar  
    24     8    17 1   
    25     9    10 ar  
    26     9    16 ar  
    27     9    29 1   
    28    10    12 1   
    29    12    13 1   
    30    12    14 1   
    31    12    15 1   
    32    18    30 1   
@<TRIPOS>SUBSTRUCTURE
     1 A5K         1 TEMP              0 ****  ****    0 ROOT
