@<TRIPOS>MOLECULE
A5P
   25    24     1     0     0
SMALL
bcc


@<TRIPOS>ATOM
      1 C1          0.1210    0.0420   -0.3620 c3        1 A5P      0.087400
      2 O1         -0.3090    1.3260    0.0790 oh        1 A5P     -0.623800
      3 C2          1.5780   -0.1330    0.0790 c3        1 A5P      0.109100
      4 O2          1.6720    0.0060    1.4910 oh        1 A5P     -0.604800
      5 C3          2.0760   -1.5450   -0.2890 c3        1 A5P      0.126100
      6 O3          1.6510   -2.4720    0.6950 oh        1 A5P     -0.612800
      7 C4          3.6090   -1.5520   -0.4870 c3        1 A5P      0.105100
      8 O4          3.9380   -0.5060   -1.3650 oh        1 A5P     -0.698800
      9 C5          4.0620   -2.9440   -0.9950 c3        1 A5P      0.205400
     10 O5          5.4150   -2.9790   -1.1940 os        1 A5P     -0.563200
     11 P           5.8750   -3.1460   -2.8640 p5        1 A5P      1.321900
     12 O1P         5.3500   -1.8160   -3.3670 o         1 A5P     -0.921500
     13 O2P         7.3640   -3.3030   -2.8010 o         1 A5P     -0.921500
     14 O3P         5.0670   -4.3360   -3.2970 o         1 A5P     -0.921500
     15 H11        -0.5200   -0.7500    0.1080 h1        1 A5P      0.031700
     16 H12         0.0510   -0.0250   -1.4790 h1        1 A5P      0.031700
     17 HO1        -1.2030    1.4400   -0.2580 ho        1 A5P      0.379000
     18 HC2         2.2240    0.6360   -0.4290 h1        1 A5P      0.087700
     19 HO2         1.4380    0.9210    1.6800 ho        1 A5P      0.389000
     20 HC3         1.5750   -1.8790   -1.2400 h1        1 A5P      0.071700
     21 HO3         2.2490   -2.3690    1.4440 ho        1 A5P      0.402000
     22 HC4         4.0900   -1.3300    0.5080 h1        1 A5P      0.008700
     23 HO4         4.5130   -0.8900   -2.0930 ho        1 A5P      0.512000
     24 H51         3.5030   -3.1870   -1.9440 h1        1 A5P     -0.001300
     25 H52         3.7630   -3.6860   -0.1950 h1        1 A5P     -0.001300
@<TRIPOS>BOND
     1    1    2 1   
     2    1    3 1   
     3    1   15 1   
     4    1   16 1   
     5    2   17 1   
     6    3    4 1   
     7    3    5 1   
     8    3   18 1   
     9    4   19 1   
    10    5    6 1   
    11    5    7 1   
    12    5   20 1   
    13    6   21 1   
    14    7    8 1   
    15    7    9 1   
    16    7   22 1   
    17    8   23 1   
    18    9   10 1   
    19    9   24 1   
    20    9   25 1   
    21   10   11 1   
    22   11   12 1   
    23   11   13 1   
    24   11   14 1   
@<TRIPOS>SUBSTRUCTURE
     1 A5P         1 TEMP              0 ****  ****    0 ROOT
