@<TRIPOS>MOLECULE
molecule
   22    23     1     0     0
SMALL
bcc


@<TRIPOS>ATOM
      1 C8           0.0000     0.0000     0.0000 c3         1 A5Q       0.674200
      2 C7           3.7740     0.0000     0.0000 ca         1 A5Q      -0.120000
      3 C4           1.6980     0.0000    -1.8390 ca         1 A5Q      -0.082500
      4 C5           1.4280     0.0000    -0.4820 ca         1 A5Q      -0.180300
      5 C6           2.4650     0.0000     0.4340 ca         1 A5Q      -0.082500
      6 C3           3.0030     0.0000    -2.2860 ca         1 A5Q      -0.120000
      7 C2           4.0510    -0.0000    -1.3660 ca         1 A5Q      -0.076500
      8 C1           5.4560    -0.0000    -1.8400 cc         1 A5Q       0.262800
      9 F2          -0.4420    -1.3180     0.1490 f          1 A5Q      -0.223300
     10 F           -0.0760     0.6590     1.2310 f          1 A5Q      -0.223300
     11 F1          -0.8060     0.6600    -0.9330 f          1 A5Q      -0.223300
     12 C            5.8570    -0.6680    -2.9820 cd         1 A5Q       0.154200
     13 N            5.0740    -1.4180    -3.8480 nv         1 A5Q      -0.879200
     14 N2           6.4200     0.6430    -1.2080 nc         1 A5Q      -0.293000
     15 N1           7.6080     0.5950    -1.6810 nd         1 A5Q      -0.113100
     16 S            7.5480    -0.3580    -3.0860 ss         1 A5Q       0.027200
     17 H2           0.8820     0.0010    -2.5520 ha         1 A5Q       0.149000
     18 H3           2.2470     0.0000     1.4960 ha         1 A5Q       0.149000
     19 H4           3.2130     0.0000    -3.3480 ha         1 A5Q       0.151000
     20 H6           4.3690    -2.0280    -3.4830 hn         1 A5Q       0.449800
     21 H7           5.2590    -1.3990    -4.8320 hn         1 A5Q       0.449800
     22 H1           4.5840    -0.0010     0.7190 ha         1 A5Q       0.151000
@<TRIPOS>BOND
     1     1     4 1
     2     1     9 1
     3     1    10 1
     4     1    11 1
     5     2     5 ar
     6     2     7 ar
     7     3     4 ar
     8     3     6 ar
     9     4     5 ar
    10     6     7 ar
    11     7     8 1
    12     8    12 2
    13     8    14 1
    14    12    13 1
    15    12    16 1
    16    14    15 2
    17    15    16 1
    18     2    22 1
    19     3    17 1
    20     5    18 1
    21     6    19 1
    22    13    20 1
    23    13    21 1
@<TRIPOS>SUBSTRUCTURE
     1 A5Q         1 TEMP              0 ****  ****    0 ROOT
