@<TRIPOS>MOLECULE
molecule
   75    80     1     0     0
SMALL
bcc


@<TRIPOS>ATOM
      1 ClA          0.0000     0.0000     0.0000 cl         1 A5T      -0.086400
      2 C36          1.7350     0.0000     0.0000 ca         1 A5T       0.030400
      3 C33          2.4290     0.0000     1.1980 ca         1 A5T       0.037400
      4 ClR3         1.5620     0.0010     2.7030 cl         1 A5T      -0.057400
      5 C38          2.4280    -0.0070    -1.1980 ca         1 A5T      -0.111000
      6 C37          3.8100    -0.0070    -1.1980 ca         1 A5T      -0.117000
      7 C34          4.5010    -0.0020    -0.0010 ca         1 A5T      -0.121000
      8 C32          3.8120    -0.0010     1.1970 ca         1 A5T      -0.103300
      9 C29          4.5660     0.0000     2.5010 c3         1 A5T       0.093300
     10 N26          4.0540    -1.0670     3.3630 n          1 A5T      -0.463800
     11 C28          3.0780    -0.7580     4.4100 cx         1 A5T       0.047700
     12 C31          1.8150    -1.6200     4.4760 cx         1 A5T      -0.149900
     13 C30          2.9060    -1.7760     5.5390 cx         1 A5T      -0.149900
     14 C22          4.4800    -2.3350     3.1930 c          1 A5T       0.687300
     15 O25          3.7550    -3.2660     3.4890 o          1 A5T      -0.580100
     16 C20          5.8150    -2.5910     2.6490 ce         1 A5T      -0.174400
     17 C23          6.5120    -1.5000     1.8800 c3         1 A5T       0.174700
     18 N27          7.5210    -2.1000     0.9920 n7         1 A5T      -0.795200
     19 C24          8.4500    -2.9330     1.7630 c3         1 A5T       0.164500
     20 C21          7.7260    -4.1590     2.3040 c3         1 A5T      -0.020200
     21 C            7.2440    -0.6030     2.8930 c3         1 A5T       0.101800
     22 NB           8.1160    -1.4630     3.7090 n7         1 A5T      -0.801200
     23 CA           9.1160    -2.1350     2.8720 c3         1 A5T       0.120800
     24 C19          6.3800    -3.7850     2.8560 cf         1 A5T       0.048600
     25 C18          5.6480    -4.7810     3.6570 ca         1 A5T      -0.045800
     26 C16          5.2070    -5.9700     3.0680 ca         1 A5T      -0.100000
     27 C14          4.5220    -6.8970     3.8250 ca         1 A5T      -0.121000
     28 C17          5.3950    -4.5440     5.0110 ca         1 A5T      -0.100000
     29 C15          4.7090    -5.4810     5.7550 ca         1 A5T      -0.121000
     30 C13          4.2710    -6.6530     5.1640 ca         1 A5T      -0.081300
     31 C12          3.5220    -7.6720     5.9840 c3         1 A5T      -0.032100
     32 C10          4.5150    -8.6520     6.6110 c3         1 A5T      -0.077400
     33 C8           3.7550    -9.6860     7.4430 c3         1 A5T       0.141400
     34 O5           4.6830   -10.6020     8.0290 os         1 A5T      -0.333900
     35 C3           4.1660   -11.5920     8.8050 ca         1 A5T       0.109100
     36 C6           3.8110   -12.8090     8.2360 ca         1 A5T       0.109900
     37 F1           3.9780   -13.0090     6.9110 f          1 A5T      -0.122900
     38 C2           3.9990   -11.3900    10.1660 ca         1 A5T      -0.018600
     39 Cl11         4.4470    -9.8740    10.8820 cl         1 A5T      -0.060400
     40 C4           3.4730   -12.4010    10.9560 ca         1 A5T       0.136900
     41 F2           3.3100   -12.2050    12.2820 f          1 A5T      -0.122900
     42 C7           3.1150   -13.6090    10.3850 ca         1 A5T      -0.145000
     43 C9           3.2860   -13.8140     9.0280 ca         1 A5T      -0.135000
     44 H38          1.8870    -0.0110    -2.1370 ha         1 A5T       0.149000
     45 H37          4.3510    -0.0110    -2.1370 ha         1 A5T       0.141000
     46 H34          5.5840    -0.0030    -0.0020 ha         1 A5T       0.139000
     47 H29          5.6200    -0.1650     2.3090 h1         1 A5T       0.087700
     48 H29A         4.4350     0.9560     2.9940 h1         1 A5T       0.087700
     49 H28          2.9380     0.2750     4.7060 h1         1 A5T       0.093700
     50 H31          1.7560    -2.4180     3.7470 hc         1 A5T       0.087200
     51 H31A         0.9170    -1.1090     4.8000 hc         1 A5T       0.087200
     52 H30          2.6730    -1.3610     6.5120 hc         1 A5T       0.087200
     53 H30A         3.5120    -2.6710     5.4580 hc         1 A5T       0.087200
     54 H23          5.7980    -0.9210     1.3070 h1         1 A5T       0.109700
     55 HN27         8.0310    -1.3740     0.5270 hn         1 A5T       0.351800
     56 H24          9.2250    -3.2760     1.0890 h1         1 A5T       0.061700
     57 H21          7.5950    -4.8760     1.5020 hc         1 A5T       0.066200
     58 H21A         8.3220    -4.6040     3.0920 hc         1 A5T       0.066200
     59 H            7.8430     0.1300     2.3670 h1         1 A5T       0.043200
     60 HA           6.5220    -0.1060     3.5290 h1         1 A5T       0.043200
     61 HNB          8.5790    -0.9070     4.4010 hn         1 A5T       0.357800
     62 HAA          9.7020    -2.8060     3.4890 h1         1 A5T       0.036700
     63 HAB          9.7670    -1.3900     2.4310 h1         1 A5T       0.036700
     64 H16          5.4030    -6.1620     2.0200 ha         1 A5T       0.132500
     65 H14          4.1780    -7.8180     3.3700 ha         1 A5T       0.127500
     66 H17          5.7370    -3.6270     5.4760 ha         1 A5T       0.132500
     67 H15          4.5100    -5.2990     6.8040 ha         1 A5T       0.127500
     68 H12          2.8340    -8.2140     5.3460 hc         1 A5T       0.049200
     69 H12A         2.9680    -7.1680     6.7670 hc         1 A5T       0.049200
     70 H10          5.0700    -9.1550     5.8280 hc         1 A5T       0.060200
     71 H10A         5.2030    -8.1100     7.2490 hc         1 A5T       0.060200
     72 H8           3.2010    -9.1830     8.2260 h1         1 A5T       0.034700
     73 H8A          3.0670   -10.2280     6.8040 h1         1 A5T       0.034700
     74 H7           2.7040   -14.3980    11.0030 ha         1 A5T       0.158000
     75 H9           3.0070   -14.7620     8.5840 ha         1 A5T       0.158000
@<TRIPOS>BOND
     1     1     2 1
     2     3     2 ar
     3     2     5 ar
     4     4     3 1
     5     3     8 ar
     6     5     6 ar
     7     5    44 1
     8     7     6 ar
     9     6    45 1
    10     8     7 ar
    11     7    46 1
    12     9     8 1
    13     9    10 1
    14     9    47 1
    15     9    48 1
    16    11    10 1
    17    10    14 1
    18    11    12 1
    19    11    13 1
    20    11    49 1
    21    12    13 1
    22    12    50 1
    23    12    51 1
    24    13    52 1
    25    13    53 1
    26    14    16 1
    27    14    15 2
    28    24    16 2
    29    16    17 1
    30    17    18 1
    31    17    21 1
    32    17    54 1
    33    19    18 1
    34    18    55 1
    35    20    19 1
    36    19    23 1
    37    19    56 1
    38    24    20 1
    39    20    57 1
    40    20    58 1
    41    22    21 1
    42    21    59 1
    43    21    60 1
    44    22    23 1
    45    22    61 1
    46    23    62 1
    47    23    63 1
    48    25    24 1
    49    28    25 ar
    50    26    25 ar
    51    27    26 ar
    52    26    64 1
    53    30    27 ar
    54    27    65 1
    55    29    28 ar
    56    28    66 1
    57    30    29 ar
    58    29    67 1
    59    31    30 1
    60    32    31 1
    61    31    68 1
    62    31    69 1
    63    32    33 1
    64    32    70 1
    65    32    71 1
    66    34    33 1
    67    33    72 1
    68    33    73 1
    69    34    35 1
    70    38    35 ar
    71    35    36 ar
    72    36    43 ar
    73    36    37 1
    74    39    38 1
    75    38    40 ar
    76    41    40 1
    77    40    42 ar
    78    42    43 ar
    79    42    74 1
    80    43    75 1
@<TRIPOS>SUBSTRUCTURE
     1 A5T         1 TEMP              0 ****  ****    0 ROOT
