@<TRIPOS>MOLECULE
molecule
   40    39     1     0     0
SMALL
bcc


@<TRIPOS>ATOM
      1 C10          0.0000     0.0000     0.0000 c3         1 A5U      -0.111100
      2 C11          1.7540     2.6710    -4.0060 c3         1 A5U       0.173800
      3 C12          1.5370     1.2310     2.1530 c          1 A5U       0.626100
      4 C13          1.6950     1.4080    -1.9820 c          1 A5U       0.769100
      5 C14          2.2680     1.4840    -4.8240 c3         1 A5U      -0.107433
      6 C15          2.3550     3.9670    -4.5540 c3         1 A5U      -0.107433
      7 C16          0.2280     2.7360    -4.1030 c3         1 A5U      -0.107433
      8 C17          1.6170     3.5520     2.6850 c3         1 A5U       0.138700
      9 C7           1.5300     0.0000     0.0000 c3         1 A5U       0.119400
     10 C8           2.0400     0.0000     1.4430 c3         1 A5U       0.042500
     11 C9           2.0390    -1.2500    -0.7210 c3         1 A5U      -0.111100
     12 N5           2.0190     1.1950    -0.6910 ns         1 A5U      -0.583900
     13 N6           1.5480    -1.1990     2.1350 nz         1 A5U      -0.800600
     14 O1           2.1440     2.5060    -2.6170 os         1 A5U      -0.420900
     15 O4           0.9950     0.6080    -2.5720 o          1 A5U      -0.607000
     16 H1          -0.3610     1.0010     0.2030 hc         1 A5U       0.065867
     17 H2          -0.3610    -0.3250    -0.9680 hc         1 A5U       0.065867
     18 H3          -0.3610    -0.6760     0.7650 hc         1 A5U       0.065867
     19 H4           3.2590     1.2120    -4.4820 hc         1 A5U       0.055478
     20 H5           2.3090     1.7580    -5.8710 hc         1 A5U       0.055478
     21 H6           1.5990     0.6420    -4.6970 hc         1 A5U       0.055478
     22 H7           2.0660     4.0880    -5.5910 hc         1 A5U       0.055478
     23 H8           1.9890     4.8070    -3.9770 hc         1 A5U       0.055478
     24 H9           3.4350     3.9230    -4.4830 hc         1 A5U       0.055478
     25 H10         -0.1660     3.2760    -3.2510 hc         1 A5U       0.055478
     26 H11         -0.0540     3.2460    -5.0160 hc         1 A5U       0.055478
     27 H12         -0.1760     1.7310    -4.1120 hc         1 A5U       0.055478
     28 H13          0.5980     3.7320     2.3650 h1         1 A5U       0.074367
     29 H14          1.6330     3.3670     3.7520 h1         1 A5U       0.074367
     30 H15          2.2240     4.4210     2.4610 h1         1 A5U       0.074367
     31 H16          3.1230    -0.0010     1.4440 hx         1 A5U       0.139700
     32 H17          1.5380    -2.1610    -0.4140 hc         1 A5U       0.065867
     33 H18          2.9520    -1.0520    -0.1720 hc         1 A5U       0.065867
     34 H19          2.1410    -1.1210    -1.7920 hc         1 A5U       0.065867
     35 H20          2.6240     1.8340    -0.2160 hn         1 A5U       0.342500
     36 H21          0.5480    -1.1840     2.1580 hn         1 A5U       0.470133
     37 H22          1.9040    -1.2130     3.0710 hn         1 A5U       0.470133
     38 O2           2.1550     2.4100     1.9700 os         1 A5U      -0.401900
     39 H63          1.8590    -2.0160     1.6480 hn         1 A5U       0.470133
     40 O3           0.5810     1.1570     2.8860 o          1 A5U      -0.523000
@<TRIPOS>BOND
     1     8    38 1
     2    11     9 1
     3    38     3 1
     4    15     4 2
     5     6     2 1
     6     4    12 1
     7     4    14 1
     8    12     9 1
     9     9    10 1
    10     9     1 1
    11     3    10 1
    12     3    40 2
    13    10    13 1
    14     5     2 1
    15     2    14 1
    16     2     7 1
    17     1    16 1
    18     1    17 1
    19     1    18 1
    20     5    19 1
    21     5    20 1
    22     5    21 1
    23     6    22 1
    24     6    23 1
    25     6    24 1
    26     7    25 1
    27     7    26 1
    28     7    27 1
    29     8    28 1
    30     8    29 1
    31     8    30 1
    32    10    31 1
    33    11    32 1
    34    11    33 1
    35    11    34 1
    36    12    35 1
    37    13    36 1
    38    13    37 1
    39    39    13 1
@<TRIPOS>SUBSTRUCTURE
     1 A5U         1 TEMP              0 ****  ****    0 ROOT
