@<TRIPOS>MOLECULE
molecule
   45    46     1     0     0
SMALL
bcc


@<TRIPOS>ATOM
      1 O            0.0000     0.0000     0.0000 oh         1 A5V      -0.605800
      2 C2           1.4280     0.0000     0.0000 c3         1 A5V       0.213400
      3 C1           1.9400     0.0000     1.4420 c3         1 A5V      -0.111400
      4 C            1.5340     1.3080     2.1260 c3         1 A5V       0.088800
      5 N            2.0260     1.3080     3.5110 nz         1 A5V      -0.810600
      6 C3           1.9310    -1.2310    -0.7110 ca         1 A5V      -0.109300
      7 C15          3.0880    -1.1690    -1.4620 ca         1 A5V      -0.159000
      8 C7           3.5500    -2.3030    -2.1160 ca         1 A5V       0.157100
      9 C6           2.8480    -3.4950    -2.0120 ca         1 A5V      -0.200000
     10 C5           1.6910    -3.5510    -1.2590 ca         1 A5V      -0.082000
     11 C4           1.2360    -2.4210    -0.6040 ca         1 A5V      -0.141000
     12 O1           4.6870    -2.2450    -2.8580 os         1 A5V      -0.326900
     13 C8           5.1040    -3.4500    -3.5020 c3         1 A5V       0.137400
     14 C9           6.3930    -3.1920    -4.2830 c3         1 A5V      -0.068700
     15 C14          6.1140    -2.2020    -5.4170 c3         1 A5V      -0.074900
     16 C13          7.4040    -1.9440    -6.1980 c3         1 A5V      -0.077900
     17 C12          7.9160    -3.2600    -6.7850 c3         1 A5V      -0.081400
     18 C11          8.1970    -4.2500    -5.6520 c3         1 A5V      -0.077900
     19 C10          6.9060    -4.5080    -4.8710 c3         1 A5V      -0.074900
     20 H1          -0.3140     0.6200    -0.6370 ho         1 A5V       0.425000
     21 H2           1.7890     0.8850    -0.5100 h1         1 A5V       0.047700
     22 H3           3.0190    -0.0880     1.4430 hc         1 A5V       0.078700
     23 H4           1.5080    -0.8370     1.9780 hc         1 A5V       0.078700
     24 H5           1.9650     2.1450     1.5900 hx         1 A5V       0.114700
     25 H6           0.4540     1.3960     2.1260 hx         1 A5V       0.114700
     26 H7           3.0210     1.2010     3.5110 hn         1 A5V       0.456800
     27 H8           1.7830     2.1730     3.9510 hn         1 A5V       0.456800
     28 H10          3.6340    -0.2370    -1.5420 ha         1 A5V       0.138000
     29 H11          3.2050    -4.3800    -2.5240 ha         1 A5V       0.150000
     30 H12          1.1440    -4.4820    -1.1760 ha         1 A5V       0.145000
     31 H13          0.3290    -2.4670    -0.0140 ha         1 A5V       0.144000
     32 H14          5.2820    -4.2160    -2.7570 h1         1 A5V       0.040200
     33 H15          4.3300    -3.7820    -4.1830 h1         1 A5V       0.040200
     34 H16          7.1440    -2.7770    -3.6220 hc         1 A5V       0.064700
     35 H17          5.7540    -1.2690    -4.9990 hc         1 A5V       0.045200
     36 H18          5.3670    -2.6180    -6.0820 hc         1 A5V       0.045200
     37 H19          8.1520    -1.5320    -5.5310 hc         1 A5V       0.045450
     38 H20          7.2040    -1.2460    -7.0010 hc         1 A5V       0.045450
     39 H21          7.1660    -3.6750    -7.4470 hc         1 A5V       0.046200
     40 H22          8.8300    -3.0760    -7.3360 hc         1 A5V       0.046200
     41 H23          8.9430    -3.8330    -4.9870 hc         1 A5V       0.045450
     42 H24          8.5580    -5.1820    -6.0700 hc         1 A5V       0.045450
     43 H25          7.1060    -5.2070    -4.0680 hc         1 A5V       0.045200
     44 H26          6.1590    -4.9200    -5.5380 hc         1 A5V       0.045200
     45 HN3          1.6030     0.5530     4.0140 hn         1 A5V       0.456800
@<TRIPOS>BOND
     1    16    15 1
     2    16    17 1
     3    15    14 1
     4    17    18 1
     5     4     5 1
     6     4     3 1
     7    14    13 1
     8    14    19 1
     9    18    19 1
    10    13    12 1
    11     3     2 1
    12     2     1 1
    13     2     6 1
    14     7     6 ar
    15     7     8 ar
    16    12     8 1
    17     6    11 ar
    18     8     9 ar
    19    11    10 ar
    20     9    10 ar
    21     1    20 1
    22     2    21 1
    23     3    22 1
    24     3    23 1
    25     4    24 1
    26     4    25 1
    27     5    26 1
    28     5    27 1
    29     7    28 1
    30     9    29 1
    31    10    30 1
    32    11    31 1
    33    13    32 1
    34    13    33 1
    35    14    34 1
    36    15    35 1
    37    15    36 1
    38    16    37 1
    39    16    38 1
    40    17    39 1
    41    17    40 1
    42    18    41 1
    43    18    42 1
    44    19    43 1
    45    19    44 1
    46    45     5 1
@<TRIPOS>SUBSTRUCTURE
     1 A5V         1 TEMP              0 ****  ****    0 ROOT
