@<TRIPOS>MOLECULE
A5V
   45    46     1     0     0
SMALL
bcc


@<TRIPOS>ATOM
      1 O            0.0000     0.0000     0.0000 oh         1 A5V      -0.588800
      2 C2           1.4280     0.0000     0.0000 c3         1 A5V       0.270400
      3 C1           1.9400     0.0000     1.4420 c3         1 A5V      -0.048400
      4 C            1.5340     1.3080     2.1260 c3         1 A5V      -0.056200
      5 N            2.0260     1.3080     3.5110 nz         1 A5V       0.086400
      6 C3           1.9310    -1.2310    -0.7110 ca         1 A5V      -0.126300
      7 C15          3.0880    -1.1690    -1.4620 ca         1 A5V      -0.139000
      8 C7           3.5500    -2.3030    -2.1160 ca         1 A5V       0.167100
      9 C6           2.8480    -3.4950    -2.0120 ca         1 A5V      -0.188000
     10 C5           1.6910    -3.5510    -1.2590 ca         1 A5V      -0.045000
     11 C4           1.2360    -2.4210    -0.6040 ca         1 A5V      -0.119000
     12 O1           4.6870    -2.2450    -2.8580 os         1 A5V      -0.302900
     13 C8           5.1040    -3.4500    -3.5020 c3         1 A5V       0.202400
     14 C9           6.3930    -3.1920    -4.2830 c3         1 A5V      -0.056700
     15 C14          6.1140    -2.2020    -5.4170 c3         1 A5V      -0.021400
     16 C13          7.4040    -1.9440    -6.1980 c3         1 A5V      -0.021400
     17 C12          7.9160    -3.2600    -6.7850 c3         1 A5V      -0.026400
     18 C11          8.1970    -4.2500    -5.6520 c3         1 A5V      -0.021400
     19 C10          6.9060    -4.5080    -4.8710 c3         1 A5V      -0.021400
     20 H1          -0.3140     0.6200    -0.6370 ho         1 A5V       0.412000
     21 H2           1.7890     0.8850    -0.5100 h1         1 A5V       0.010700
     22 H3           3.0190    -0.0880     1.4430 hc         1 A5V       0.045200
     23 H4           1.5080    -0.8370     1.9780 hc         1 A5V       0.045200
     24 H5           1.9650     2.1450     1.5900 hx         1 A5V       0.087700
     25 H6           0.4540     1.3960     2.1260 hx         1 A5V       0.087700
     26 H7           3.0210     1.2010     3.5110 hn         1 A5V       0.222800
     27 H8           1.7830     2.1730     3.9510 hn         1 A5V       0.222800
     28 H10          3.6340    -0.2370    -1.5420 ha         1 A5V       0.114000
     29 H11          3.2050    -4.3800    -2.5240 ha         1 A5V       0.132000
     30 H12          1.1440    -4.4820    -1.1760 ha         1 A5V       0.112000
     31 H13          0.3290    -2.4670    -0.0140 ha         1 A5V       0.118000
     32 H14          5.2820    -4.2160    -2.7570 h1         1 A5V       0.006700
     33 H15          4.3300    -3.7820    -4.1830 h1         1 A5V       0.006700
     34 H16          7.1440    -2.7770    -3.6220 hc         1 A5V       0.038700
     35 H17          5.7540    -1.2690    -4.9990 hc         1 A5V       0.017700
     36 H18          5.3670    -2.6180    -6.0820 hc         1 A5V       0.017700
     37 H19          8.1520    -1.5320    -5.5310 hc         1 A5V       0.016200
     38 H20          7.2040    -1.2460    -7.0010 hc         1 A5V       0.016200
     39 H21          7.1660    -3.6750    -7.4470 hc         1 A5V       0.017700
     40 H22          8.8300    -3.0760    -7.3360 hc         1 A5V       0.017700
     41 H23          8.9430    -3.8330    -4.9870 hc         1 A5V       0.016200
     42 H24          8.5580    -5.1820    -6.0700 hc         1 A5V       0.016200
     43 H25          7.1060    -5.2070    -4.0680 hc         1 A5V       0.017700
     44 H26          6.1590    -4.9200    -5.5380 hc         1 A5V       0.017700
     45 HN3          1.6030     0.5530     4.0140 hn         1 A5V       0.222800
@<TRIPOS>BOND
     1     1     2 1   
     2     1    20 1   
     3     2     3 1   
     4     2     6 1   
     5     2    21 1   
     6     3     4 1   
     7     3    22 1   
     8     3    23 1   
     9     4     5 1   
    10     4    24 1   
    11     4    25 1   
    12     5    26 1   
    13     5    27 1   
    14     5    45 1   
    15     6     7 ar  
    16     6    11 ar  
    17     7     8 ar  
    18     7    28 1   
    19     8     9 ar  
    20     8    12 1   
    21     9    10 ar  
    22     9    29 1   
    23    10    11 ar  
    24    10    30 1   
    25    11    31 1   
    26    12    13 1   
    27    13    14 1   
    28    13    32 1   
    29    13    33 1   
    30    14    15 1   
    31    14    19 1   
    32    14    34 1   
    33    15    16 1   
    34    15    35 1   
    35    15    36 1   
    36    16    17 1   
    37    16    37 1   
    38    16    38 1   
    39    17    18 1   
    40    17    39 1   
    41    17    40 1   
    42    18    19 1   
    43    18    41 1   
    44    18    42 1   
    45    19    43 1   
    46    19    44 1   
@<TRIPOS>SUBSTRUCTURE
     1 A5V         1 TEMP              0 ****  ****    0 ROOT
