@<TRIPOS>MOLECULE
molecule
   43    45     1     0     0
SMALL
bcc


@<TRIPOS>ATOM
      1 C16          0.0000     0.0000     0.0000 cy         1 A5W      -0.079900
      2 C15          1.5370     0.0000     0.0000 cy         1 A5W      -0.107400
      3 C12         -0.9470     0.1390     2.3620 c          1 A5W       0.674100
      4 C13          0.0780     0.6590     1.3880 cy         1 A5W      -0.178700
      5 C14          1.4600     0.0000     1.5360 cy         1 A5W      -0.079900
      6 C11         -3.8220     1.3250     4.0320 c3         1 A5W      -0.091400
      7 C10         -3.2130     0.1320     3.2880 c3         1 A5W       0.103000
      8 C9          -2.5860     1.6700     1.3820 c3         1 A5W       0.103000
      9 C8          -3.2030     2.8460     2.1470 c3         1 A5W      -0.091400
     10 C7          -4.3550     2.3360     3.0150 c3         1 A5W      -0.018400
     11 C4          -4.8070     5.3260     5.2770 ca         1 A5W      -0.164000
     12 C5          -4.2300     4.2610     4.6090 ca         1 A5W      -0.090000
     13 C6          -4.9860     3.4960     3.7430 ca         1 A5W      -0.109300
     14 C3          -6.1440     5.6220     5.0850 ca         1 A5W      -0.092000
     15 C2          -6.9040     4.8590     4.2200 ca         1 A5W      -0.218000
     16 C1          -6.3260     3.7950     3.5440 ca         1 A5W       0.142100
     17 O1          -0.6420    -0.7200     3.1610 o          1 A5W      -0.613100
     18 N           -2.2020     0.6290     2.3440 n          1 A5W      -0.490800
     19 O           -7.0720     3.0420     2.6930 os         1 A5W      -0.331900
     20 C           -8.4460     3.4040     2.5420 c3         1 A5W       0.128700
     21 H1          -0.4240    -0.9970     0.0270 hc         1 A5W       0.062700
     22 H2          -0.4240     0.6510    -0.7550 hc         1 A5W       0.062700
     23 H3           1.9610    -0.9120    -0.4030 hc         1 A5W       0.054200
     24 H4           1.9610     0.9120    -0.4030 hc         1 A5W       0.054200
     25 H5           0.1340     1.7400     1.3350 hc         1 A5W       0.077700
     26 H6           1.4110    -0.9970     1.9580 hc         1 A5W       0.062700
     27 H7           2.1920     0.6510     1.9970 hc         1 A5W       0.062700
     28 H8          -4.6360     0.9810     4.6590 hc         1 A5W       0.052700
     29 H9          -3.0610     1.7950     4.6430 hc         1 A5W       0.052700
     30 H10         -2.7460    -0.5380     3.9990 h1         1 A5W       0.056200
     31 H11         -3.9910    -0.3910     2.7440 h1         1 A5W       0.056200
     32 H12         -1.7080     2.0080     0.8450 h1         1 A5W       0.056200
     33 H13         -3.3130     1.2700     0.6860 h1         1 A5W       0.056200
     34 H14         -2.4490     3.3000     2.7790 hc         1 A5W       0.052700
     35 H15         -3.5790     3.5770     1.4410 hc         1 A5W       0.052700
     36 H16         -5.0940     1.8560     2.3850 hc         1 A5W       0.072700
     37 H18         -3.1830     4.0310     4.7610 ha         1 A5W       0.137000
     38 H19         -6.5950     6.4550     5.6110 ha         1 A5W       0.130000
     39 H20         -7.9510     5.0920     4.0680 ha         1 A5W       0.135000
     40 H21         -8.9440     3.3390     3.5010 h1         1 A5W       0.041700
     41 H22         -8.9220     2.7290     1.8410 h1         1 A5W       0.041700
     42 H23         -8.5130     4.4190     2.1680 h1         1 A5W       0.041700
     43 H17         -4.2130     5.9250     5.9550 ha         1 A5W       0.131000
@<TRIPOS>BOND
     1    20    19 1
     2    19    16 1
     3    15    16 ar
     4    15    14 ar
     5    16    13 ar
     6    10    13 1
     7    10     9 1
     8    10     6 1
     9    14    11 ar
    10    13    12 ar
    11     9     8 1
    12     6     7 1
    13    12    11 ar
    14     8    18 1
    15     7    18 1
    16    18     3 1
    17    17     3 2
    18     3     4 1
    19     4     5 1
    20     4     1 1
    21     5     2 1
    22     1     2 1
    23     1    21 1
    24     1    22 1
    25     2    23 1
    26     2    24 1
    27     4    25 1
    28     5    26 1
    29     5    27 1
    30     6    28 1
    31     6    29 1
    32     7    30 1
    33     7    31 1
    34     8    32 1
    35     8    33 1
    36     9    34 1
    37     9    35 1
    38    10    36 1
    39    11    43 1
    40    12    37 1
    41    14    38 1
    42    15    39 1
    43    20    40 1
    44    20    41 1
    45    20    42 1
@<TRIPOS>SUBSTRUCTURE
     1 A5W         1 TEMP              0 ****  ****    0 ROOT
