@<TRIPOS>MOLECULE
molecule
   52    53     1     0     0
SMALL
bcc


@<TRIPOS>ATOM
      1 O22          0.0000     0.0000     0.0000 o          1 A5X      -0.782833
      2 P2           1.6100     0.0000     0.0000 p5         1 A5X       1.309900
      3 O23          2.1030     0.0000     1.3960 o          1 A5X      -0.782833
      4 O21          2.1470    -1.3140    -0.7580 o          1 A5X      -0.782833
      5 O11          2.1460     1.3150    -0.7590 os         1 A5X      -0.714800
      6 P1           3.5730     2.0550    -0.8400 p5         1 A5X       1.430800
      7 O12          4.5180     1.2860    -1.8930 o          1 A5X      -0.851000
      8 O13          4.2120     2.0430     0.4950 o          1 A5X      -0.851000
      9 O5G          3.3620     3.5770    -1.3200 os         1 A5X      -0.603200
     10 C5B          4.4280     4.5260    -1.3920 c3         1 A5X       0.237400
     11 C5A          3.8830     5.8690    -1.8840 c3         1 A5X      -0.013100
     12 C5           5.0080     6.8700    -1.9590 cc         1 A5X      -0.073400
     13 C4           5.7890     7.0970    -3.0190 cd         1 A5X      -0.112600
     14 C4A          5.6370     6.3510    -4.3190 c3         1 A5X      -0.033800
     15 S1           5.5180     7.9530    -0.6660 ss         1 A5X       0.039200
     16 C2           6.7360     8.5980    -1.6770 cc         1 A5X      -0.138700
     17 C2B          7.7060     9.6810    -1.2760 c3         1 A5X       0.076900
     18 P3           7.1490    10.4490     0.2800 p5         1 A5X       0.934600
     19 O32          5.8060    11.0380     0.0860 o          1 A5X      -0.780500
     20 O31          8.1850    11.6060     0.7070 o          1 A5X      -0.780500
     21 C22          9.0950     9.0720    -1.0760 c3         1 A5X      -0.078100
     22 O24          7.7640    10.6720    -2.3030 oh         1 A5X      -0.592800
     23 N3           6.7040     8.0260    -2.8330 na         1 A5X       0.065900
     24 C35          7.6430     8.3960    -3.8950 c3         1 A5X       0.086600
     25 C5'          7.0650     9.5290    -4.7040 ca         1 A5X      -0.384900
     26 C6'          5.8290     9.4100    -5.3070 ca         1 A5X       0.485200
     27 N1'          5.3510    10.4270    -6.0110 nb         1 A5X      -0.776000
     28 C2'          6.0370    11.5440    -6.1410 ca         1 A5X       0.704300
     29 C2A          5.4530    12.6720    -6.9510 c3         1 A5X      -0.118400
     30 N3'          7.2210    11.7020    -5.5830 nb         1 A5X      -0.812000
     31 C4'          7.7640    10.7290    -4.8580 ca         1 A5X       0.767200
     32 N4'          9.0080    10.8980    -4.2730 nv         1 A5X      -1.005500
     33 H4           4.8650     4.6520    -0.4090 h1         1 A5X       0.024700
     34 H5           5.1840     4.1690    -2.0800 h1         1 A5X       0.024700
     35 H6           3.4470     5.7430    -2.8680 hc         1 A5X       0.058700
     36 H7           3.1270     6.2260    -1.1960 hc         1 A5X       0.058700
     37 H8           4.5890     6.3170    -4.5950 hc         1 A5X       0.056367
     38 H9           6.0120     5.3420    -4.2030 hc         1 A5X       0.056367
     39 H10          6.1980     6.8580    -5.0950 hc         1 A5X       0.056367
     40 H13          9.1860     8.1740    -1.6750 hc         1 A5X       0.034700
     41 H14          9.8500     9.7870    -1.3810 hc         1 A5X       0.034700
     42 H15          9.2340     8.8240    -0.0300 hc         1 A5X       0.034700
     43 H16          7.4740    11.5000    -1.9580 ho         1 A5X       0.412000
     44 H17          8.5820     8.7090    -3.4550 h1         1 A5X       0.074700
     45 H18          7.8140     7.5430    -4.5400 h1         1 A5X       0.074700
     46 H19          5.2560     8.4960    -5.2060 h4         1 A5X       0.042100
     47 H20          4.7820    12.2700    -7.7000 hc         1 A5X       0.049033
     48 H21          6.2520    13.2180    -7.4380 hc         1 A5X       0.049033
     49 H22          4.9060    13.3400    -6.2960 hc         1 A5X       0.049033
     50 H23          9.2380    11.7670    -3.8330 hn         1 A5X       0.438800
     51 H24          9.7030    10.1840    -4.3610 hn         1 A5X       0.438800
     52 H25          7.0930     9.4750     1.2910 hp         1 A5X      -0.138400
@<TRIPOS>BOND
     1     8     6 1
     2     7     6 1
     3    29    28 1
     4     6     5 1
     5     6     9 1
     6     5     2 1
     7     9    10 1
     8    28    27 ar
     9    28    30 ar
    10    27    26 ar
    11    10    11 1
    12     3     2 1
    13    30    31 ar
    14     4     2 1
    15     2     1 1
    16    26    25 ar
    17    11    12 1
    18    14    13 1
    19    31    25 ar
    20    31    32 1
    21    25    24 1
    22    12    13 2
    23    12    15 1
    24    13    23 1
    25    23    24 1
    26    23    16 2
    27    15    16 1
    28    16    17 1
    29    21    17 1
    30    22    17 1
    31    17    18 1
    32    18    20 1
    33    18    19 1
    34    10    33 1
    35    10    34 1
    36    11    35 1
    37    11    36 1
    38    14    37 1
    39    14    38 1
    40    14    39 1
    41    21    40 1
    42    21    41 1
    43    21    42 1
    44    22    43 1
    45    24    44 1
    46    24    45 1
    47    26    46 1
    48    29    47 1
    49    29    48 1
    50    29    49 1
    51    32    50 1
    52    32    51 1
    53    18    52 1
@<TRIPOS>SUBSTRUCTURE
     1 A5X         1 TEMP              0 ****  ****    0 ROOT
