@<TRIPOS>MOLECULE
molecule
   81    84     1     0     0
SMALL
bcc


@<TRIPOS>ATOM
      1 N1           0.0000     0.0000     0.0000 nv         1 A60      -0.982200
      2 C2           1.3970     0.0000     0.0000 ca         1 A60       0.224600
      3 C3           2.0920     0.0000     1.2030 ca         1 A60      -0.180000
      4 C4           3.4730    -0.0010     1.1990 ca         1 A60      -0.022000
      5 C5           4.1640    -0.0010     0.0020 ca         1 A60      -0.338500
      6 C6           3.4740    -0.0020    -1.1980 ca         1 A60      -0.022000
      7 C7           2.0930    -0.0060    -1.2020 ca         1 A60      -0.180000
      8 S8           5.9260    -0.0010     0.0020 sy         1 A60       1.419200
      9 O9           6.3280     0.5420    -1.2480 o          1 A60      -0.634800
     10 O10          6.3270     0.5430     1.2520 o          1 A60      -0.634800
     11 N11          6.4160    -1.5830     0.0030 n3         1 A60      -0.807500
     12 C12          6.7930    -2.2340    -1.2540 c3         1 A60       0.232800
     13 C13          8.3120    -2.1700    -1.4260 c3         1 A60      -0.089700
     14 C14          8.7460    -0.7100    -1.5790 c3         1 A60      -0.079400
     15 C15          8.9910    -2.7770    -0.1980 c3         1 A60      -0.079400
     16 C16          6.4730    -2.3320     1.2610 c3         1 A60       0.210800
     17 C17          5.1560    -3.0840     1.4660 c3         1 A60       0.102100
     18 C18          8.6670    -4.2710    -0.1230 c3         1 A60      -0.094100
     19 O18          5.0070    -4.0720     0.4450 oh         1 A60      -0.600800
     20 C19          5.1660    -3.7640     2.8370 c3         1 A60       0.122700
     21 C20          8.2300    -0.1620    -2.9120 c3         1 A60      -0.094100
     22 N20          3.8610    -4.3840     3.0840 ns         1 A60      -0.568900
     23 C21          3.4430    -4.5920     4.3490 c          1 A60       0.744100
     24 O22          4.1480    -4.2650     5.2830 o          1 A60      -0.595000
     25 O23          2.2440    -5.1600     4.5750 os         1 A60      -0.433900
     26 C24          1.8580    -5.3550     5.9620 c3         1 A60       0.138100
     27 C25          1.0670    -4.1380     6.4730 c3         1 A60       0.114400
     28 O26         -0.2630    -4.5840     6.7730 os         1 A60      -0.421600
     29 C27         -0.2000    -5.9910     7.0720 c3         1 A60       0.332900
     30 O28         -1.4300    -6.6060     6.6610 os         1 A60      -0.397600
     31 C29         -1.3490    -7.0130     5.2920 c3         1 A60       0.128400
     32 C30          0.0600    -6.6520     4.7770 c3         1 A60      -0.097400
     33 C31          0.8780    -6.5390     6.0860 c3         1 A60      -0.139700
     34 C32          6.2540    -4.8390     2.8640 c3         1 A60      -0.049100
     35 C33          5.5780    -6.5220     4.5890 ca         1 A60      -0.116500
     36 C34          5.6630    -7.0590     5.8600 ca         1 A60      -0.121500
     37 C35          6.5160    -6.4980     6.7920 ca         1 A60      -0.126000
     38 C36          7.2860    -5.4010     6.4530 ca         1 A60      -0.121500
     39 C37          7.2000    -4.8640     5.1820 ca         1 A60      -0.116500
     40 C38          6.3460    -5.4240     4.2500 ca         1 A60      -0.071300
     41 HN1         -0.5000    -0.8160    -0.2940 hn         1 A60       0.435300
     42 HN1A        -0.5000     0.8020     0.3280 hn         1 A60       0.435300
     43 H3           1.5510     0.0010     2.1420 ha         1 A60       0.143500
     44 H4           4.0160    -0.0010     2.1370 ha         1 A60       0.150000
     45 H6           4.0180    -0.0040    -2.1340 ha         1 A60       0.150000
     46 H7           1.5540    -0.0060    -2.1410 ha         1 A60       0.143500
     47 H12          6.3140    -1.7250    -2.0820 h1         1 A60       0.063700
     48 H12A         6.4750    -3.2690    -1.2340 h1         1 A60       0.063700
     49 H13          8.5990    -2.7260    -2.3100 hc         1 A60       0.059700
     50 H14          8.3370    -0.1240    -0.7650 hc         1 A60       0.041700
     51 H14A         9.8270    -0.6510    -1.5590 hc         1 A60       0.041700
     52 H15          8.6290    -2.2840     0.6960 hc         1 A60       0.041700
     53 H15A        10.0630    -2.6440    -0.2750 hc         1 A60       0.041700
     54 H16          7.2910    -3.0400     1.2230 h1         1 A60       0.087700
     55 H16A         6.6280    -1.6440     2.0840 h1         1 A60       0.087700
     56 H17          4.3290    -2.3850     1.4160 h1         1 A60       0.046700
     57 H18          7.5990    -4.4150    -0.2330 hc         1 A60       0.037033
     58 H18A         8.9880    -4.6620     0.8350 hc         1 A60       0.037033
     59 H18B         9.1860    -4.7930    -0.9180 hc         1 A60       0.037033
     60 HO18         4.1350    -4.0270     0.0880 ho         1 A60       0.403000
     61 H19          5.3670    -3.0270     3.6050 h1         1 A60       0.090700
     62 H20          9.0200    -0.2080    -3.6520 hc         1 A60       0.037033
     63 H20A         7.9160     0.8670    -2.7820 hc         1 A60       0.037033
     64 H20B         7.3880    -0.7570    -3.2460 hc         1 A60       0.037033
     65 HN20         3.2720    -4.6330     2.3150 hn         1 A60       0.319500
     66 H24          2.7300    -5.5230     6.5820 h1         1 A60       0.089700
     67 H25          1.5340    -3.7470     7.3700 h1         1 A60       0.064200
     68 H25A         1.0340    -3.3730     5.7060 h1         1 A60       0.064200
     69 H27          0.0430    -6.1900     8.1090 h2         1 A60       0.094700
     70 H29         -2.0970    -6.4890     4.7090 h1         1 A60       0.048700
     71 H29A        -1.5020    -8.0830     5.2190 h1         1 A60       0.048700
     72 H30          0.4510    -7.4420     4.1480 hc         1 A60       0.066700
     73 H30A         0.0440    -5.7050     4.2520 hc         1 A60       0.066700
     74 H31          1.3360    -7.4670     6.4080 hc         1 A60       0.088700
     75 H32          7.2060    -4.3980     2.5940 hc         1 A60       0.062200
     76 H32A         6.0060    -5.6220     2.1570 hc         1 A60       0.062200
     77 H34          5.0610    -7.9190     6.1270 ha         1 A60       0.124500
     78 H35          6.5830    -6.9190     7.7880 ha         1 A60       0.125000
     79 H36          7.9540    -4.9620     7.1830 ha         1 A60       0.124500
     80 H37          7.8030    -4.0040     4.9160 ha         1 A60       0.124500
     81 H33          4.9090    -6.9620     3.8590 ha         1 A60       0.124500
@<TRIPOS>BOND
     1     1     2 1
     2     2     3 ar
     3     2     7 ar
     4     3     4 ar
     5     4     5 ar
     6     5     6 ar
     7     5     8 1
     8     6     7 ar
     9     8     9 2
    10     8    10 2
    11     8    11 1
    12    11    12 1
    13    11    16 1
    14    12    13 1
    15    13    14 1
    16    13    15 1
    17    14    21 1
    18    15    18 1
    19    16    17 1
    20    17    19 1
    21    17    20 1
    22    20    22 1
    23    20    34 1
    24    22    23 1
    25    23    24 2
    26    23    25 1
    27    25    26 1
    28    26    27 1
    29    26    33 1
    30    27    28 1
    31    28    29 1
    32    29    30 1
    33    29    33 1
    34    30    31 1
    35    31    32 1
    36    32    33 1
    37    34    40 1
    38    35    36 ar
    39    35    40 ar
    40    36    37 ar
    41    37    38 ar
    42    38    39 ar
    43    39    40 ar
    44     1    41 1
    45     1    42 1
    46     3    43 1
    47     4    44 1
    48     6    45 1
    49     7    46 1
    50    12    47 1
    51    12    48 1
    52    13    49 1
    53    14    50 1
    54    14    51 1
    55    15    52 1
    56    15    53 1
    57    16    54 1
    58    16    55 1
    59    17    56 1
    60    18    57 1
    61    18    58 1
    62    18    59 1
    63    19    60 1
    64    20    61 1
    65    21    62 1
    66    21    63 1
    67    21    64 1
    68    22    65 1
    69    26    66 1
    70    27    67 1
    71    27    68 1
    72    29    69 1
    73    31    70 1
    74    31    71 1
    75    32    72 1
    76    32    73 1
    77    33    74 1
    78    34    75 1
    79    34    76 1
    80    35    81 1
    81    36    77 1
    82    37    78 1
    83    38    79 1
    84    39    80 1
@<TRIPOS>SUBSTRUCTURE
     1 A60         1 TEMP              0 ****  ****    0 ROOT
