@<TRIPOS>MOLECULE
molecule
   81    85     1     0     0
SMALL
bcc


@<TRIPOS>ATOM
      1 C1           0.0000     0.0000     0.0000 cc         1 A61       0.420100
      2 N1           1.2800     0.0000     0.0000 nd         1 A61      -0.584100
      3 S1          -0.6260     0.0000     1.5870 ss         1 A61      -0.076100
      4 C2           1.9080     0.0000     1.1910 ca         1 A61       0.163400
      5 C3           1.0010     0.0010     2.2570 ca         1 A61      -0.097100
      6 C4           1.4640     0.0020     3.5720 ca         1 A61       0.023000
      7 C5           2.8160     0.0030     3.8260 ca         1 A61      -0.315500
      8 C6           3.7210     0.0030     2.7730 ca         1 A61      -0.044000
      9 C7           3.2880    -0.0000     1.4810 ca         1 A61      -0.093000
     10 S8           3.4000     0.0040     5.4870 sy         1 A61       1.418200
     11 O9           4.7120     0.5490     5.4510 o          1 A61      -0.629800
     12 O10          2.3540     0.5480     6.2800 o          1 A61      -0.629800
     13 N11          3.5630    -1.5780     5.9520 n3         1 A61      -0.805500
     14 C12          4.8740    -2.2280     5.8890 c3         1 A61       0.231800
     15 C13          5.5430    -2.1620     7.2630 c3         1 A61      -0.089700
     16 C14          5.8320    -0.7030     7.6200 c3         1 A61      -0.079400
     17 C15          4.6110    -2.7690     8.3130 c3         1 A61      -0.079400
     18 C16          2.3960    -2.3260     6.4250 c3         1 A61       0.208800
     19 C17          1.7640    -3.0780     5.2520 c3         1 A61       0.103100
     20 C18          4.4330    -4.2630     8.0340 c3         1 A61      -0.093100
     21 O18          2.6780    -4.0670     4.7720 oh         1 A61      -0.600800
     22 C19          0.4750    -3.7590     5.7190 c3         1 A61       0.122700
     23 C20          6.9160    -0.1540     6.6900 c3         1 A61      -0.093100
     24 N20         -0.1920    -4.3800     4.5720 ns         1 A61      -0.569900
     25 C21         -1.5240    -4.5870     4.5990 c          1 A61       0.745100
     26 O22         -2.1700    -4.2610     5.5750 o          1 A61      -0.595000
     27 O23         -2.1370    -5.1570     3.5450 os         1 A61      -0.432900
     28 C24         -3.5730    -5.3510     3.6440 c3         1 A61       0.138100
     29 C25         -4.3190    -4.1350     3.0680 c3         1 A61       0.114400
     30 O26         -5.0450    -4.5830     1.9140 os         1 A61      -0.423600
     31 C27         -5.3060    -5.9910     2.0730 c3         1 A61       0.332900
     32 O28         -5.3280    -6.6050     0.7780 os         1 A61      -0.397600
     33 C29         -4.0100    -7.0140     0.3970 c3         1 A61       0.128400
     34 C30         -3.0560    -6.6510     1.5540 c3         1 A61      -0.098400
     35 C31         -4.0170    -6.5370     2.7620 c3         1 A61      -0.139700
     36 C32          0.8130    -4.8340     6.7550 c3         1 A61      -0.049100
     37 C33         -1.0390    -6.5170     6.6940 ca         1 A61      -0.116500
     38 C34         -2.2100    -7.0530     7.1980 ca         1 A61      -0.121500
     39 C35         -2.8040    -6.4920     8.3130 ca         1 A61      -0.126000
     40 C36         -2.2260    -5.3940     8.9240 ca         1 A61      -0.121500
     41 C37         -1.0570    -4.8570     8.4200 ca         1 A61      -0.116500
     42 C38         -0.4630    -5.4190     7.3050 ca         1 A61      -0.072300
     43 H1          -0.6090    -0.0020    -0.8960 h5         1 A61       0.075800
     44 H4           0.7580     0.0030     4.3940 ha         1 A61       0.157000
     45 H6           4.7840     0.0030     2.9810 ha         1 A61       0.157000
     46 H7           4.0080    -0.0000     0.6720 ha         1 A61       0.154000
     47 H12          5.4950    -1.7200     5.1600 h1         1 A61       0.064700
     48 H12A         4.7500    -3.2640     5.5970 h1         1 A61       0.064700
     49 H13          6.4720    -2.7190     7.2390 hc         1 A61       0.060700
     50 H14          6.1740    -0.6430     8.6460 hc         1 A61       0.041700
     51 H14A         4.9280    -0.1170     7.5060 hc         1 A61       0.041700
     52 H15          3.6470    -2.2760     8.2690 hc         1 A61       0.041700
     53 H15A         5.0410    -2.6350     9.2980 hc         1 A61       0.041700
     54 H16          1.6720    -1.6390     6.8450 h1         1 A61       0.088700
     55 H16A         2.7050    -3.0350     7.1840 h1         1 A61       0.088700
     56 H17          1.5360    -2.3800     4.4560 h1         1 A61       0.042700
     57 H18          4.1770    -4.4080     6.9910 hc         1 A61       0.037200
     58 H18A         5.3570    -4.7840     8.2540 hc         1 A61       0.037200
     59 H18B         3.6400    -4.6550     8.6590 hc         1 A61       0.037200
     60 HO18         2.7230    -4.0230     3.8320 ho         1 A61       0.404000
     61 H19         -0.1830    -3.0220     6.1640 h1         1 A61       0.091700
     62 H20          7.8850    -0.2620     7.1620 hc         1 A61       0.037200
     63 H20A         6.7260     0.8940     6.4920 hc         1 A61       0.037200
     64 H20B         6.9050    -0.7060     5.7580 hc         1 A61       0.037200
     65 HN20         0.3430    -4.6650     3.7760 hn         1 A61       0.320500
     66 H24         -3.8670    -5.5180     4.6730 h1         1 A61       0.089700
     67 H25         -3.6070    -3.3710     2.7790 h1         1 A61       0.064200
     68 H25A        -5.0090    -3.7440     3.8060 h1         1 A61       0.064200
     69 H27         -6.2020    -6.1890     2.6480 h2         1 A61       0.094700
     70 H29         -3.7100    -6.4910    -0.5030 h1         1 A61       0.048700
     71 H29A        -3.9920    -8.0840     0.2300 h1         1 A61       0.048700
     72 H30         -2.5670    -5.7030     1.3630 hc         1 A61       0.066700
     73 H30A        -2.3320    -7.4400     1.7140 hc         1 A61       0.066700
     74 H31         -4.1680    -7.4650     3.3020 hc         1 A61       0.088700
     75 H32          1.3970    -5.6160     6.2870 hc         1 A61       0.062200
     76 H32A         1.3840    -4.3910     7.5620 hc         1 A61       0.062200
     77 H34         -2.6610    -7.9130     6.7190 ha         1 A61       0.124500
     78 H35         -3.7210    -6.9120     8.7080 ha         1 A61       0.125000
     79 H36         -2.6920    -4.9540     9.7980 ha         1 A61       0.124500
     80 H37         -0.6050    -3.9980     8.8990 ha         1 A61       0.124000
     81 H33         -0.5730    -6.9570     5.8210 ha         1 A61       0.124000
@<TRIPOS>BOND
     1     1     2 2
     2     1     3 1
     3     2     4 1
     4     3     5 1
     5     4     5 ar
     6     4     9 ar
     7     5     6 ar
     8     6     7 ar
     9     7     8 ar
    10     7    10 1
    11     8     9 ar
    12    10    11 2
    13    10    12 2
    14    10    13 1
    15    13    14 1
    16    13    18 1
    17    14    15 1
    18    15    16 1
    19    15    17 1
    20    16    23 1
    21    17    20 1
    22    18    19 1
    23    19    21 1
    24    19    22 1
    25    22    24 1
    26    22    36 1
    27    24    25 1
    28    25    26 2
    29    25    27 1
    30    27    28 1
    31    28    29 1
    32    28    35 1
    33    29    30 1
    34    30    31 1
    35    31    32 1
    36    31    35 1
    37    32    33 1
    38    33    34 1
    39    34    35 1
    40    36    42 1
    41    37    38 ar
    42    37    42 ar
    43    38    39 ar
    44    39    40 ar
    45    40    41 ar
    46    41    42 ar
    47     1    43 1
    48     6    44 1
    49     8    45 1
    50     9    46 1
    51    14    47 1
    52    14    48 1
    53    15    49 1
    54    16    50 1
    55    16    51 1
    56    17    52 1
    57    17    53 1
    58    18    54 1
    59    18    55 1
    60    19    56 1
    61    20    57 1
    62    20    58 1
    63    20    59 1
    64    21    60 1
    65    22    61 1
    66    23    62 1
    67    23    63 1
    68    23    64 1
    69    24    65 1
    70    28    66 1
    71    29    67 1
    72    29    68 1
    73    31    69 1
    74    33    70 1
    75    33    71 1
    76    34    72 1
    77    34    73 1
    78    35    74 1
    79    36    75 1
    80    36    76 1
    81    37    81 1
    82    38    77 1
    83    39    78 1
    84    40    79 1
    85    41    80 1
@<TRIPOS>SUBSTRUCTURE
     1 A61         1 TEMP              0 ****  ****    0 ROOT
