@<TRIPOS>MOLECULE
A62
   50    52     1     0     0
SMALL
bcc


@<TRIPOS>ATOM
      1 C            0.0000     0.0000     0.0000 c3         1 A62       0.231400
      2 N            3.2440    -0.8920     1.4690 n          1 A62      -0.171800
      3 O           -0.4770     1.2350     0.5380 oh         1 A62      -0.594800
      4 C1           1.5290     0.0000     0.0000 c3         1 A62      -0.066700
      5 C2           2.0750     0.0000     1.4430 c3         1 A62       0.052000
      6 O2           4.5060    -2.4410     5.1290 oh         1 A62      -0.588800
      7 C3           3.4630    -1.4220     0.1110 c3         1 A62       0.059000
      8 C4           2.0790    -1.3300    -0.5780 c3         1 A62      -0.001400
      9 C5           2.2250    -1.2480    -2.0770 ca         1 A62      -0.086300
     10 C6           1.5290    -2.1220    -2.8890 ca         1 A62      -0.087000
     11 C7           1.6630    -2.0480    -4.2620 ca         1 A62      -0.094000
     12 C8           2.4960    -1.0960    -4.8240 ca         1 A62      -0.034600
     13 C9           3.1930    -0.2210    -4.0100 ca         1 A62      -0.094000
     14 C10          3.0540    -0.2940    -2.6380 ca         1 A62      -0.087000
     15 C11          3.9940    -1.1730     2.5530 c          1 A62       0.615100
     16 C12          3.6570    -0.5520     3.8840 c3         1 A62      -0.122400
     17 C13          4.6560    -1.0340     4.9390 c3         1 A62       0.211100
     18 C14          4.3910    -0.3090     6.2600 c3         1 A62       0.007900
     19 C15          5.4500    -0.6900     7.2620 ca         1 A62      -0.087300
     20 C16          6.6130     0.0520     7.3550 ca         1 A62      -0.084500
     21 C17          7.5840    -0.2980     8.2740 ca         1 A62      -0.099500
     22 C18          7.3920    -1.3900     9.1020 ca         1 A62      -0.035600
     23 C19          6.2280    -2.1310     9.0090 ca         1 A62      -0.099500
     24 C20          5.2550    -1.7780     8.0920 ca         1 A62      -0.084500
     25 H           -0.3610    -0.1150    -1.0150 h1         1 A62      -0.007800
     26 HA          -0.3610    -0.8210     0.6070 h1         1 A62      -0.007800
     27 HO          -1.3980     1.3230     0.3530 ho         1 A62       0.394000
     28 H1           1.9190     0.8460    -0.5540 hc         1 A62       0.053700
     29 H2           2.3720     1.0030     1.7240 h1         1 A62       0.022200
     30 H2A          1.3160    -0.3690     2.1230 h1         1 A62       0.022200
     31 H3           4.1870    -0.8130    -0.4170 h1         1 A62       0.033700
     32 H3A          3.7910    -2.4530     0.1590 h1         1 A62       0.033700
     33 H4           1.4500    -2.1630    -0.2890 hc         1 A62       0.044700
     34 H6           0.8770    -2.8670    -2.4480 ha         1 A62       0.112000
     35 H7           1.1170    -2.7330    -4.8990 ha         1 A62       0.116000
     36 H9           3.8420     0.5270    -4.4500 ha         1 A62       0.116000
     37 H10          3.6000     0.3920    -2.0010 ha         1 A62       0.112000
     38 H12          3.7090     0.5270     3.8030 hc         1 A62       0.038700
     39 H12A         2.6550    -0.8440     4.1750 hc         1 A62       0.038700
     40 H13          5.6640    -0.8200     4.6050 h1         1 A62       0.019700
     41 H14          3.4170    -0.5920     6.6390 hc         1 A62       0.025200
     42 H14A         4.4180     0.7620     6.0960 hc         1 A62       0.025200
     43 H16          6.7640     0.9070     6.7060 ha         1 A62       0.112500
     44 H17          8.4950     0.2830     8.3470 ha         1 A62       0.113500
     45 H19          6.0750    -2.9830     9.6600 ha         1 A62       0.113500
     46 H20          4.3430    -2.3590     8.0190 ha         1 A62       0.112500
     47 HO2          5.3060    -2.8780     4.8850 ho         1 A62       0.408000
     48 Cl           2.6660    -1.0020    -6.5500 cl         1 A62      -0.023400
     49 O1           4.9400    -1.9260     2.4570 o          1 A62      -0.656100
     50 Cl1          8.6120    -1.8290    10.2560 cl         1 A62      -0.032400
@<TRIPOS>BOND
     1     1     3 1   
     2     1     4 1   
     3     1    25 1   
     4     1    26 1   
     5     2     5 1   
     6     2     7 1   
     7     2    15 1   
     8     3    27 1   
     9     4     5 1   
    10     4     8 1   
    11     4    28 1   
    12     5    29 1   
    13     5    30 1   
    14     6    17 1   
    15     6    47 1   
    16     7     8 1   
    17     7    31 1   
    18     7    32 1   
    19     8     9 1   
    20     8    33 1   
    21     9    10 ar  
    22     9    14 ar  
    23    10    11 ar  
    24    10    34 1   
    25    11    12 ar  
    26    11    35 1   
    27    12    13 ar  
    28    12    48 1   
    29    13    14 ar  
    30    13    36 1   
    31    14    37 1   
    32    15    16 1   
    33    15    49 2   
    34    16    17 1   
    35    16    38 1   
    36    16    39 1   
    37    17    18 1   
    38    17    40 1   
    39    18    19 1   
    40    18    41 1   
    41    18    42 1   
    42    19    20 ar  
    43    19    24 ar  
    44    20    21 ar  
    45    20    43 1   
    46    21    22 ar  
    47    21    44 1   
    48    22    23 ar  
    49    22    50 1   
    50    23    24 ar  
    51    23    45 1   
    52    24    46 1   
@<TRIPOS>SUBSTRUCTURE
     1 A62         1 TEMP              0 ****  ****    0 ROOT
