@<TRIPOS>MOLECULE
molecule
   50    52     1     0     0
SMALL
bcc


@<TRIPOS>ATOM
      1 C            0.0000     0.0000     0.0000 c3         1 A62       0.147400
      2 N            3.2440    -0.8920     1.4690 n          1 A62      -0.503800
      3 O           -0.4770     1.2350     0.5380 oh         1 A62      -0.613800
      4 C1           1.5290     0.0000     0.0000 c3         1 A62      -0.075700
      5 C2           2.0750     0.0000     1.4430 c3         1 A62       0.101000
      6 O2           4.5060    -2.4410     5.1290 oh         1 A62      -0.603800
      7 C3           3.4630    -1.4220     0.1110 c3         1 A62       0.113000
      8 C4           2.0790    -1.3300    -0.5780 c3         1 A62      -0.041400
      9 C5           2.2250    -1.2480    -2.0770 ca         1 A62      -0.080300
     10 C6           1.5290    -2.1220    -2.8890 ca         1 A62      -0.115000
     11 C7           1.6630    -2.0480    -4.2620 ca         1 A62      -0.117500
     12 C8           2.4960    -1.0960    -4.8240 ca         1 A62       0.029400
     13 C9           3.1930    -0.2210    -4.0100 ca         1 A62      -0.117500
     14 C10          3.0540    -0.2940    -2.6380 ca         1 A62      -0.115000
     15 C11          3.9940    -1.1730     2.5530 c          1 A62       0.686100
     16 C12          3.6570    -0.5520     3.8840 c3         1 A62      -0.169400
     17 C13          4.6560    -1.0340     4.9390 c3         1 A62       0.168100
     18 C14          4.3910    -0.3090     6.2600 c3         1 A62      -0.049100
     19 C15          5.4500    -0.6900     7.2620 ca         1 A62      -0.083300
     20 C16          6.6130     0.0520     7.3550 ca         1 A62      -0.112000
     21 C17          7.5840    -0.2980     8.2740 ca         1 A62      -0.122500
     22 C18          7.3920    -1.3900     9.1020 ca         1 A62       0.027400
     23 C19          6.2280    -2.1310     9.0090 ca         1 A62      -0.122500
     24 C20          5.2550    -1.7780     8.0920 ca         1 A62      -0.112000
     25 H           -0.3610    -0.1150    -1.0150 h1         1 A62       0.029200
     26 HA          -0.3610    -0.8210     0.6070 h1         1 A62       0.029200
     27 HO          -1.3980     1.3230     0.3530 ho         1 A62       0.407000
     28 H1           1.9190     0.8460    -0.5540 hc         1 A62       0.079700
     29 H2           2.3720     1.0030     1.7240 h1         1 A62       0.051200
     30 H2A          1.3160    -0.3690     2.1230 h1         1 A62       0.051200
     31 H3           4.1870    -0.8130    -0.4170 h1         1 A62       0.062700
     32 H3A          3.7910    -2.4530     0.1590 h1         1 A62       0.062700
     33 H4           1.4500    -2.1630    -0.2890 hc         1 A62       0.072700
     34 H6           0.8770    -2.8670    -2.4480 ha         1 A62       0.139500
     35 H7           1.1170    -2.7330    -4.8990 ha         1 A62       0.146500
     36 H9           3.8420     0.5270    -4.4500 ha         1 A62       0.146500
     37 H10          3.6000     0.3920    -2.0010 ha         1 A62       0.139500
     38 H12          3.7090     0.5270     3.8030 hc         1 A62       0.070700
     39 H12A         2.6550    -0.8440     4.1750 hc         1 A62       0.070700
     40 H13          5.6640    -0.8200     4.6050 h1         1 A62       0.052700
     41 H14          3.4170    -0.5920     6.6390 hc         1 A62       0.057200
     42 H14A         4.4180     0.7620     6.0960 hc         1 A62       0.057200
     43 H16          6.7640     0.9070     6.7060 ha         1 A62       0.141000
     44 H17          8.4950     0.2830     8.3470 ha         1 A62       0.143500
     45 H19          6.0750    -2.9830     9.6600 ha         1 A62       0.143500
     46 H20          4.3430    -2.3590     8.0190 ha         1 A62       0.141000
     47 HO2          5.3060    -2.8780     4.8850 ho         1 A62       0.420000
     48 Cl           2.6660    -1.0020    -6.5500 cl         1 A62      -0.106400
     49 O1           4.9400    -1.9260     2.4570 o          1 A62      -0.615100
     50 Cl1          8.6120    -1.8290    10.2560 cl         1 A62      -0.113400
@<TRIPOS>BOND
     1     1     3 1
     2     1     4 1
     3     2     5 1
     4     2     7 1
     5     2    15 1
     6    48    12 1
     7     4     5 1
     8     4     8 1
     9    49    15 2
    10    50    22 1
    11     6    17 1
    12     7     8 1
    13     8     9 1
    14     9    10 ar
    15     9    14 ar
    16    10    11 ar
    17    11    12 ar
    18    12    13 ar
    19    13    14 ar
    20    15    16 1
    21    16    17 1
    22    17    18 1
    23    18    19 1
    24    19    20 ar
    25    19    24 ar
    26    20    21 ar
    27    21    22 ar
    28    22    23 ar
    29    23    24 ar
    30     1    25 1
    31     1    26 1
    32     3    27 1
    33     4    28 1
    34     5    29 1
    35     5    30 1
    36     6    47 1
    37     7    31 1
    38     7    32 1
    39     8    33 1
    40    10    34 1
    41    11    35 1
    42    13    36 1
    43    14    37 1
    44    16    38 1
    45    16    39 1
    46    17    40 1
    47    18    41 1
    48    18    42 1
    49    20    43 1
    50    21    44 1
    51    23    45 1
    52    24    46 1
@<TRIPOS>SUBSTRUCTURE
     1 A62         1 TEMP              0 ****  ****    0 ROOT
