@<TRIPOS>MOLECULE
molecule
   31    33     1     0     0
SMALL
bcc


@<TRIPOS>ATOM
      1 CAQ          0.0000     0.0000     0.0000 c3         1 A63       0.126700
      2 OAO          1.4290     0.0000     0.0000 os         1 A63      -0.322900
      3 CAK          2.0450     0.0000     1.2090 ca         1 A63       0.165100
      4 CAM          1.2860    -0.0040     2.3740 ca         1 A63      -0.198000
      5 CAI          1.9070    -0.0030     3.6030 ca         1 A63      -0.053000
      6 CAL          3.4330    -0.0000     1.2800 ca         1 A63      -0.198000
      7 CAJ          4.0620     0.0010     2.5050 ca         1 A63      -0.053000
      8 CAG          3.3030     0.0020     3.6790 ca         1 A63      -0.116800
      9 CAA          3.9730     0.0040     4.9920 cc         1 A63       0.220900
     10 OAC          3.2170     0.0000     6.1020 os         1 A63      -0.217200
     11 CAF          3.7540     0.0010     7.3400 ca         1 A63       0.156100
     12 CAP          2.9420    -0.0030     8.4680 ca         1 A63      -0.157000
     13 CAS          3.5120    -0.0030     9.7250 ca         1 A63      -0.077000
     14 CAR          4.8900     0.0030     9.8770 ca         1 A63      -0.166000
     15 CAN          5.7110     0.0070     8.7710 ca         1 A63      -0.040000
     16 CAE          5.1490     0.0060     7.4960 ca         1 A63      -0.227600
     17 CAD          5.9930     0.0110     6.2840 c          1 A63       0.586900
     18 OAH          7.2100     0.0150     6.3590 o          1 A63      -0.552100
     19 CAB          5.3340     0.0040     5.0340 cd         1 A63      -0.352200
     20 H1          -0.3610    -0.8860     0.5080 h1         1 A63       0.044700
     21 H2          -0.3610     0.8830     0.5130 h1         1 A63       0.044700
     22 H3          -0.3610     0.0030    -1.0210 h1         1 A63       0.044700
     23 H4           0.2040    -0.0080     2.3150 ha         1 A63       0.146500
     24 H5           1.3150    -0.0040     4.5100 ha         1 A63       0.148000
     25 H6           4.0210    -0.0010     0.3710 ha         1 A63       0.146500
     26 H7           5.1440     0.0030     2.5590 ha         1 A63       0.148000
     27 H8           1.8640    -0.0070     8.3610 ha         1 A63       0.146000
     28 H9           2.8760    -0.0060    10.6010 ha         1 A63       0.138000
     29 H10          5.3220     0.0030    10.8700 ha         1 A63       0.138000
     30 H11          6.7880     0.0110     8.8910 ha         1 A63       0.159000
     31 H12          5.9030    -0.1280     4.1220 ha         1 A63       0.168000
@<TRIPOS>BOND
     1     1     2 1
     2     2     3 1
     3     3     6 ar
     4     3     4 ar
     5     6     7 ar
     6     4     5 ar
     7     7     8 ar
     8     5     8 ar
     9     8     9 1
    10     9    10 1
    11     9    19 2
    12    10    11 1
    13    19    17 1
    14    11    12 ar
    15    11    16 ar
    16    12    13 ar
    17    17    16 1
    18    17    18 2
    19    16    15 ar
    20    13    14 ar
    21    15    14 ar
    22     1    20 1
    23     1    21 1
    24     1    22 1
    25     4    23 1
    26     5    24 1
    27     6    25 1
    28     7    26 1
    29    12    27 1
    30    13    28 1
    31    14    29 1
    32    15    30 1
    33    19    31 1
@<TRIPOS>SUBSTRUCTURE
     1 A63         1 TEMP              0 ****  ****    0 ROOT
