@<TRIPOS>MOLECULE
A63
   31    33     1     0     0
SMALL
bcc


@<TRIPOS>ATOM
      1 CAQ        -0.0350   -0.1220   -0.0300 c3        1 A63      0.111700
      2 OAO         1.3520    0.1940    0.0330 os        1 A63     -0.322900
      3 CAK         1.9420    0.1130    1.2760 ca        1 A63      0.148100
      4 CAM         1.2730   -0.2550    2.4510 ca        1 A63     -0.189000
      5 CAI         1.9780   -0.3010    3.6500 ca        1 A63     -0.057000
      6 CAL         3.3130    0.4370    1.3020 ca        1 A63     -0.189000
      7 CAJ         4.0020    0.3850    2.5050 ca        1 A63     -0.057000
      8 CAG         3.3440    0.0100    3.6890 ca        1 A63     -0.117800
      9 CAA         4.0880   -0.0580    4.9450 cc        1 A63      0.205900
     10 OAC         3.2580    0.1640    6.0360 os        1 A63     -0.227200
     11 CAF         3.8420    0.1220    7.2930 ca        1 A63      0.143100
     12 CAP         2.9650    0.3510    8.3690 ca        1 A63     -0.160000
     13 CAS         3.4760    0.3270    9.6600 ca        1 A63     -0.079000
     14 CAR         4.8360    0.0810    9.8860 ca        1 A63     -0.166000
     15 CAN         5.6940   -0.1430    8.8170 ca        1 A63     -0.047000
     16 CAE         5.2070   -0.1250    7.5010 ca        1 A63     -0.214600
     17 CAD         6.0930   -0.3590    6.3500 c         1 A63      0.590900
     18 OAH         7.3070   -0.5800    6.4640 o         1 A63     -0.547100
     19 CAB         5.4130   -0.3110    5.0580 cd        1 A63     -0.325200
     20 H1         -0.6280    0.5840    0.6000 h1        1 A63      0.048033
     21 H2         -0.2130   -1.1780    0.2870 h1        1 A63      0.048033
     22 H3         -0.2810    0.0130   -1.1140 h1        1 A63      0.048033
     23 H4          0.2030   -0.5060    2.4390 ha        1 A63      0.149500
     24 H5          1.4590   -0.5850    4.5800 ha        1 A63      0.147500
     25 H6          3.8170    0.7280    0.3700 ha        1 A63      0.149500
     26 H7          5.0720    0.6450    2.5300 ha        1 A63      0.147500
     27 H8          1.9010    0.5440    8.1740 ha        1 A63      0.153000
     28 H9          2.8040    0.5040   10.5140 ha        1 A63      0.139000
     29 H10         5.2230    0.0650   10.9160 ha        1 A63      0.141000
     30 H11         6.7680   -0.3380    8.9780 ha        1 A63      0.161000
     31 H12         6.0320   -0.5010    4.1680 ha        1 A63      0.168000
@<TRIPOS>BOND
     1    1    2 1   
     2    1   20 1   
     3    1   21 1   
     4    1   22 1   
     5    2    3 1   
     6    3    4 ar  
     7    3    6 ar  
     8    4    5 ar  
     9    4   23 1   
    10    5    8 ar  
    11    5   24 1   
    12    6    7 ar  
    13    6   25 1   
    14    7    8 ar  
    15    7   26 1   
    16    8    9 1   
    17    9   10 1   
    18    9   19 2   
    19   10   11 1   
    20   11   12 ar  
    21   11   16 ar  
    22   12   13 ar  
    23   12   27 1   
    24   13   14 ar  
    25   13   28 1   
    26   14   15 ar  
    27   14   29 1   
    28   15   16 ar  
    29   15   30 1   
    30   16   17 1   
    31   17   18 2   
    32   17   19 1   
    33   19   31 1   
@<TRIPOS>SUBSTRUCTURE
     1 A63         1 TEMP              0 ****  ****    0 ROOT
