@<TRIPOS>MOLECULE
molecule
   36    38     1     0     0
SMALL
bcc


@<TRIPOS>ATOM
      1 CAS          0.0000     0.0000     0.0000 c3         1 A64      -0.085100
      2 CAP          2.0320     1.2310    -0.7110 ca         1 A64      -0.053300
      3 CAO          2.8270     1.1000    -1.8340 ca         1 A64      -0.131500
      4 CAN          3.2870     2.2220    -2.4920 ca         1 A64      -0.089500
      5 CAL          1.6910     2.4850    -0.2370 ca         1 A64      -0.131500
      6 CAM          2.1410     3.6160    -0.8870 ca         1 A64      -0.089500
      7 CAK          2.9460     3.4920    -2.0210 ca         1 A64      -0.078800
      8 CAI          3.4330     4.6980    -2.7210 cc         1 A64       0.213900
      9 OAJ          4.2040     4.5450    -3.8080 os         1 A64      -0.216200
     10 CAF          4.6900     5.5970    -4.5020 ca         1 A64       0.157100
     11 CAA          5.4850     5.4030    -5.6250 ca         1 A64      -0.157000
     12 CAB          5.9690     6.4910    -6.3200 ca         1 A64      -0.076000
     13 CAC          5.6730     7.7820    -5.9110 ca         1 A64      -0.166000
     14 CAD          4.8860     7.9950    -4.7990 ca         1 A64      -0.040000
     15 CAE          4.3890     6.9030    -4.0880 ca         1 A64      -0.228600
     16 CAG          3.5420     7.0870    -2.8930 c          1 A64       0.586900
     17 OAQ          3.2480     8.1990    -2.4880 o          1 A64      -0.551100
     18 CAH          3.0800     5.9200    -2.2400 cd         1 A64      -0.347200
     19 C1           1.5300     0.0000     0.0000 c3         1 A64      -0.035400
     20 C            2.0390     0.0000     1.4430 c3         1 A64      -0.085100
     21 HAS1        -0.3610     0.2010    -1.0010 hc         1 A64       0.038367
     22 HAS2        -0.3610     0.7670     0.6740 hc         1 A64       0.038367
     23 HAS3        -0.3610    -0.9680     0.3270 hc         1 A64       0.038367
     24 H1           1.8910    -0.8850    -0.5110 hc         1 A64       0.056700
     25 HAO          3.0900     0.1150    -2.1980 ha         1 A64       0.138500
     26 HAL          1.0670     2.5800     0.6430 ha         1 A64       0.138500
     27 HAN          3.9100     2.1180    -3.3720 ha         1 A64       0.144500
     28 HAM          1.8740     4.5980    -0.5160 ha         1 A64       0.144500
     29 HAH          2.3470     5.9990    -1.4450 ha         1 A64       0.169000
     30 HAA          5.7230     4.3990    -5.9540 ha         1 A64       0.146000
     31 HAB          6.5890     6.3340    -7.1950 ha         1 A64       0.138000
     32 HAC          6.0610     8.6270    -6.4670 ha         1 A64       0.139000
     33 HAD          4.6550     9.0040    -4.4800 ha         1 A64       0.159000
     34 HC1          3.1050     0.1970     1.4500 hc         1 A64       0.038367
     35 HC2          1.8470    -0.9660     1.8930 hc         1 A64       0.038367
     36 HC3          1.5260     0.7700     2.0070 hc         1 A64       0.038367
@<TRIPOS>BOND
     1     1    19 1
     2     2     3 ar
     3     2     5 ar
     4     2    19 1
     5     3     4 ar
     6     4     7 ar
     7     5     6 ar
     8     6     7 ar
     9     7     8 1
    10     8     9 1
    11     8    18 2
    12     9    10 1
    13    10    11 ar
    14    10    15 ar
    15    11    12 ar
    16    12    13 ar
    17    13    14 ar
    18    14    15 ar
    19    15    16 1
    20    16    17 2
    21    16    18 1
    22    19    20 1
    23     1    21 1
    24     1    22 1
    25     1    23 1
    26    19    24 1
    27     3    25 1
    28     5    26 1
    29     4    27 1
    30     6    28 1
    31    18    29 1
    32    11    30 1
    33    12    31 1
    34    13    32 1
    35    14    33 1
    36    20    34 1
    37    20    35 1
    38    20    36 1
@<TRIPOS>SUBSTRUCTURE
     1 A64         1 TEMP              0 ****  ****    0 ROOT
