@<TRIPOS>MOLECULE
A64
   36    38     1     0     0
SMALL
bcc


@<TRIPOS>ATOM
      1 CAS         0.0020    0.0670    0.2440 c3        1 A64     -0.089100
      2 CAP         1.9500    1.2530   -0.7400 ca        1 A64     -0.048300
      3 CAO         2.4890    1.1940   -2.0310 ca        1 A64     -0.135000
      4 CAN         2.9210    2.3520   -2.6720 ca        1 A64     -0.090000
      5 CAL         1.8530    2.4950   -0.1000 ca        1 A64     -0.135000
      6 CAM         2.2830    3.6560   -0.7350 ca        1 A64     -0.090000
      7 CAK         2.8160    3.5940   -2.0310 ca        1 A64     -0.083800
      8 CAI         3.2490    4.8200   -2.7030 cc        1 A64      0.199900
      9 OAJ         4.2570    4.5620   -3.6230 os        1 A64     -0.225200
     10 CAF         4.7520    5.6440   -4.3340 ca        1 A64      0.143100
     11 CAA         5.7700    5.3390   -5.2560 ca        1 A64     -0.160000
     12 CAB         6.3190    6.3700   -6.0070 ca        1 A64     -0.079000
     13 CAC         5.8680    7.6870   -5.8490 ca        1 A64     -0.166000
     14 CAD         4.8630    7.9790   -4.9360 ca        1 A64     -0.047000
     15 CAE         4.2890    6.9580   -4.1630 ca        1 A64     -0.214600
     16 CAG         3.2230    7.2370   -3.1890 c         1 A64      0.590900
     17 OAQ         2.7720    8.3730   -2.9860 o         1 A64     -0.547100
     18 CAH         2.7400    6.0540   -2.4810 cd        1 A64     -0.321200
     19 C1          1.4870    0.0020   -0.0610 c3        1 A64     -0.028400
     20 C           2.2800   -0.2530    1.2060 c3        1 A64     -0.089100
     21 HAS1       -0.2200    0.9060    0.9460 hc        1 A64      0.038367
     22 HAS2       -0.3310   -0.8880    0.7170 hc        1 A64      0.038367
     23 HAS3       -0.5820    0.2250   -0.6940 hc        1 A64      0.038367
     24 H1          1.6590   -0.8690   -0.7590 hc        1 A64      0.053700
     25 HAO         2.5740    0.2250   -2.5460 ha        1 A64      0.138500
     26 HAL         1.4350    2.5540    0.9170 ha        1 A64      0.138500
     27 HAN         3.3480    2.2970   -3.6850 ha        1 A64      0.145000
     28 HAM         2.2090    4.6240   -0.2160 ha        1 A64      0.145000
     29 HAH         1.9290    6.2100   -1.7540 ha        1 A64      0.168000
     30 HAA         6.1130    4.3010   -5.3660 ha        1 A64      0.153000
     31 HAB         7.1160    6.1490   -6.7320 ha        1 A64      0.139000
     32 HAC         6.3140    8.4920   -6.4530 ha        1 A64      0.141000
     33 HAD         4.4970    9.0100   -4.8000 ha        1 A64      0.161000
     34 HC1         1.9470   -1.2090    1.6780 hc        1 A64      0.038367
     35 HC2         3.3700   -0.3290    0.9760 hc        1 A64      0.038367
     36 HC3         2.1300    0.5750    1.9400 hc        1 A64      0.038367
@<TRIPOS>BOND
     1    1   19 1   
     2    1   21 1   
     3    1   22 1   
     4    1   23 1   
     5    2    3 ar  
     6    2    5 ar  
     7    2   19 1   
     8    3    4 ar  
     9    3   25 1   
    10    4    7 ar  
    11    4   27 1   
    12    5    6 ar  
    13    5   26 1   
    14    6    7 ar  
    15    6   28 1   
    16    7    8 1   
    17    8    9 1   
    18    8   18 2   
    19    9   10 1   
    20   10   11 ar  
    21   10   15 ar  
    22   11   12 ar  
    23   11   30 1   
    24   12   13 ar  
    25   12   31 1   
    26   13   14 ar  
    27   13   32 1   
    28   14   15 ar  
    29   14   33 1   
    30   15   16 1   
    31   16   17 2   
    32   16   18 1   
    33   18   29 1   
    34   19   20 1   
    35   19   24 1   
    36   20   34 1   
    37   20   35 1   
    38   20   36 1   
@<TRIPOS>SUBSTRUCTURE
     1 A64         1 TEMP              0 ****  ****    0 ROOT
