@<TRIPOS>MOLECULE
molecule
   20    20     1     0     0
SMALL
bcc


@<TRIPOS>ATOM
      1 C4           0.0000     0.0000     0.0000 cc         1 A65      -0.218600
      2 C5          -0.8160     0.0010    -1.2670 c3         1 A65       0.210700
      3 C3           4.0790     0.0010    -0.6620 c3         1 A65      -0.039000
      4 C2           1.3590     0.0000     0.0000 cd         1 A65       0.078800
      5 C1          -0.5740     0.0060     1.2590 cc         1 A65       0.511600
      6 O           -1.0740    -1.3470    -1.6680 oh         1 A65      -0.597800
      7 S2           2.4240     0.0010    -1.4040 ss         1 A65      -0.154000
      8 S1           1.8230     0.0000     1.6560 ss         1 A65       0.112200
      9 N            0.2440     0.0050     2.2770 nd         1 A65      -0.499100
     10 S           -2.3210     0.0130     1.4780 ss         1 A65      -0.291400
     11 C           -2.5070     0.0180     3.2830 c3         1 A65      -0.017000
     12 H1          -1.7550     0.5120    -1.0910 h1         1 A65       0.035700
     13 H2          -0.2670     0.5120    -2.0490 h1         1 A65       0.035700
     14 H3           4.8260    -0.0060    -1.4460 h1         1 A65       0.072033
     15 H4           4.2010     0.8890    -0.0530 h1         1 A65       0.072033
     16 H5           4.1970    -0.8800    -0.0430 h1         1 A65       0.072033
     17 H6          -1.5710    -1.3470    -2.4690 ho         1 A65       0.402000
     18 H8          -3.5600     0.0230     3.5370 h1         1 A65       0.070700
     19 H9          -2.0330     0.9020     3.6920 h1         1 A65       0.070700
     20 H10         -2.0400    -0.8670     3.6960 h1         1 A65       0.070700
@<TRIPOS>BOND
     1     1     2 1
     2     1     4 2
     3     1     5 1
     4     2     6 1
     5     3     7 1
     6     4     7 1
     7     4     8 1
     8     5     9 2
     9     5    10 1
    10     8     9 1
    11    10    11 1
    12     2    12 1
    13     2    13 1
    14     3    14 1
    15     3    15 1
    16     3    16 1
    17     6    17 1
    18    11    18 1
    19    11    19 1
    20    11    20 1
@<TRIPOS>SUBSTRUCTURE
     1 A65         1 TEMP              0 ****  ****    0 ROOT
