@<TRIPOS>MOLECULE
A68
   82    83     1     0     0
SMALL
bcc


@<TRIPOS>ATOM
      1 C27          0.0000     0.0000     0.0000 c          1 A68       0.573100
      2 O27          1.2120     0.0000     0.0000 o          1 A68      -0.664100
      3 C28         -0.7540     0.0000     1.3050 c3         1 A68      -0.065100
      4 N27         -0.6740    -0.0010    -1.1670 ns         1 A68      -0.170900
      5 C22          0.0540     0.1140    -2.4340 c3         1 A68      -0.058300
      6 C21         -0.7450     0.9490    -3.3990 c          1 A68       0.578100
      7 O22         -1.8470     1.3490    -3.0870 o          1 A68      -0.644100
      8 C23          0.2710    -1.2810    -3.0240 c3         1 A68      -0.060700
      9 C25         -1.0670    -2.0190    -3.0930 c3         1 A68      -0.031400
     10 C24          1.2410    -2.0660    -2.1380 c3         1 A68      -0.009100
     11 C26         -1.9760    -1.3340    -4.1150 c3         1 A68      -0.043100
     12 N11         -1.1150     2.3820    -9.2800 n3         1 A68      -0.518500
     13 C12          0.0130     3.0060    -9.9750 c3         1 A68       0.231800
     14 C13         -0.4380     4.3340   -10.5890 c3         1 A68      -0.080700
     15 C14         -0.8940     5.2800    -9.4760 c3         1 A68       0.003900
     16 C15          0.7280     4.9670   -11.3500 c3         1 A68       0.003900
     17 C17         -0.5630     1.8770    -6.9510 c3         1 A68       0.144100
     18 O18          0.8200     2.1850    -7.1370 oh         1 A68      -0.580800
     19 C19         -0.9590     2.1630    -5.5010 c3         1 A68       0.002700
     20 N20         -0.2360     1.2530    -4.6090 ns         1 A68      -0.188900
     21 C32         -0.6030     3.6100    -5.1510 c3         1 A68       0.012900
     22 C33         -0.2890     3.7070    -2.6690 ca         1 A68      -0.095000
     23 C34         -0.7490     3.9990    -1.3990 ca         1 A68      -0.092500
     24 C35         -2.0200     4.5130    -1.2240 ca         1 A68      -0.101000
     25 C36         -2.8330     4.7350    -2.3190 ca         1 A68      -0.092500
     26 C37         -2.3740     4.4430    -3.5900 ca         1 A68      -0.095000
     27 C38         -1.1030     3.9290    -3.7660 ca         1 A68      -0.083300
     28 S8          -2.0590     1.2690   -10.0650 sy         1 A68       1.049200
     29 O9          -1.9150     1.5310   -11.4540 o          1 A68      -0.585800
     30 O10         -3.3150     1.2690    -9.4000 o          1 A68      -0.585800
     31 C5          -1.3430    -0.3160    -9.7800 ca         1 A68      -0.209500
     32 C4          -1.7340    -1.0610    -8.6830 ca         1 A68       0.042500
     33 C6          -0.3930    -0.8110   -10.6530 ca         1 A68       0.042500
     34 C3          -1.1750    -2.3050    -8.4580 ca         1 A68      -0.210500
     35 C7           0.1730    -2.0500   -10.4280 ca         1 A68      -0.210500
     36 C2          -0.2210    -2.8040    -9.3320 ca         1 A68       0.202100
     37 O1           0.3310    -4.0260    -9.1120 os         1 A68      -0.304900
     38 C1           1.3070    -4.4760   -10.0530 c3         1 A68       0.244700
     39 H28         -1.6760     0.5560     1.1900 hc         1 A68       0.023700
     40 H28A        -0.9810    -1.0200     1.5910 hc         1 A68       0.023700
     41 H28B        -0.1460     0.4640     2.0730 hc         1 A68       0.023700
     42 HN27        -1.6740    -0.0430    -1.1670 hn         1 A68       0.199500
     43 H22          1.0140     0.5840    -2.2570 h1         1 A68       0.076700
     44 H23          0.6850    -1.1900    -4.0210 hc         1 A68       0.023700
     45 H25         -1.5410    -2.0000    -2.1180 hc         1 A68       0.020200
     46 H25A        -0.8980    -3.0470    -3.3920 hc         1 A68       0.020200
     47 H24          0.6980    -2.5110    -1.3140 hc         1 A68       0.015700
     48 H24A         1.9990    -1.3960    -1.7510 hc         1 A68       0.015700
     49 H24B         1.7140    -2.8460    -2.7230 hc         1 A68       0.015700
     50 H26         -2.5630    -2.0820    -4.6350 hc         1 A68       0.015367
     51 H26A        -1.3710    -0.7900    -4.8300 hc         1 A68       0.015367
     52 H26B        -2.6390    -0.6460    -3.6050 hc         1 A68       0.015367
     53 H12          0.3640     2.3470   -10.7590 h1         1 A68       0.026700
     54 H12A         0.8150     3.1880    -9.2700 h1         1 A68       0.026700
     55 H13         -1.2600     4.1550   -11.2710 hc         1 A68       0.048700
     56 H14         -0.1770     5.2550    -8.6640 hc         1 A68       0.004867
     57 H14A        -0.9630     6.2890    -9.8660 hc         1 A68       0.004867
     58 H14B        -1.8650     4.9670    -9.1110 hc         1 A68       0.004867
     59 H15          1.5360     5.1800   -10.6600 hc         1 A68       0.004867
     60 H15A         1.0760     4.2810   -12.1130 hc         1 A68       0.004867
     61 H15B         0.3980     5.8870   -11.8150 hc         1 A68       0.004867
     62 H16         -1.1720     3.7860    -7.7290 h1         1 A68       0.057200
     63 H16A        -2.4590     2.5730    -7.6870 h1         1 A68       0.057200
     64 H17         -0.7330     0.8300    -7.1730 h1         1 A68       0.010700
     65 HO18         1.2940     1.3950    -7.3370 ho         1 A68       0.389000
     66 H19         -2.0250     2.0140    -5.3820 h1         1 A68       0.070700
     67 HN20         0.6230     0.8360    -4.9090 hn         1 A68       0.177500
     68 H32         -1.0680     4.2780    -5.8650 hc         1 A68       0.033200
     69 H32A         0.4720     3.7360    -5.1850 hc         1 A68       0.033200
     70 H33          0.7070     3.3050    -2.8060 ha         1 A68       0.101000
     71 H34         -0.1120     3.8250    -0.5400 ha         1 A68       0.100500
     72 H35         -2.3800     4.7420    -0.2280 ha         1 A68       0.099000
     73 H36         -3.8290     5.1370    -2.1820 ha         1 A68       0.100500
     74 H37         -3.0110     4.6170    -4.4490 ha         1 A68       0.101000
     75 H4          -2.4800    -0.6710    -8.0010 ha         1 A68       0.123500
     76 H6          -0.0850    -0.2220   -11.5090 ha         1 A68       0.123500
     77 H3          -1.4830    -2.8900    -7.6000 ha         1 A68       0.126000
     78 H7           0.9180    -2.4380   -11.1120 ha         1 A68       0.126000
     79 H1           1.6580    -5.4600    -9.7660 h1         1 A68       0.001033
     80 H1A          0.8620    -4.5250   -11.0390 h1         1 A68       0.001033
     81 H1B          2.1410    -3.7850   -10.0670 h1         1 A68       0.001033
     82 C16         -1.4080     2.7410    -7.8900 c3         1 A68       0.183800
@<TRIPOS>BOND
     1     1     2 2   
     2     1     3 1   
     3     1     4 1   
     4     3    39 1   
     5     3    40 1   
     6     3    41 1   
     7     4     5 1   
     8     4    42 1   
     9     5     6 1   
    10     5     8 1   
    11     5    43 1   
    12     6     7 2   
    13     6    20 1   
    14     8     9 1   
    15     8    10 1   
    16     8    44 1   
    17     9    11 1   
    18     9    45 1   
    19     9    46 1   
    20    10    47 1   
    21    10    48 1   
    22    10    49 1   
    23    11    50 1   
    24    11    51 1   
    25    11    52 1   
    26    12    13 1   
    27    12    28 1   
    28    12    82 1   
    29    13    14 1   
    30    13    53 1   
    31    13    54 1   
    32    14    15 1   
    33    14    16 1   
    34    14    55 1   
    35    15    56 1   
    36    15    57 1   
    37    15    58 1   
    38    16    59 1   
    39    16    60 1   
    40    16    61 1   
    41    17    18 1   
    42    17    19 1   
    43    17    64 1   
    44    17    82 1   
    45    18    65 1   
    46    19    20 1   
    47    19    21 1   
    48    19    66 1   
    49    20    67 1   
    50    21    27 1   
    51    21    68 1   
    52    21    69 1   
    53    22    23 ar  
    54    22    27 ar  
    55    22    70 1   
    56    23    24 ar  
    57    23    71 1   
    58    24    25 ar  
    59    24    72 1   
    60    25    26 ar  
    61    25    73 1   
    62    26    27 ar  
    63    26    74 1   
    64    28    29 2   
    65    28    30 2   
    66    28    31 1   
    67    31    32 ar  
    68    31    33 ar  
    69    32    34 ar  
    70    32    75 1   
    71    33    35 ar  
    72    33    76 1   
    73    34    36 ar  
    74    34    77 1   
    75    35    36 ar  
    76    35    78 1   
    77    36    37 1   
    78    37    38 1   
    79    38    79 1   
    80    38    80 1   
    81    38    81 1   
    82    62    82 1   
    83    63    82 1   
@<TRIPOS>SUBSTRUCTURE
     1 A68         1 TEMP              0 ****  ****    0 ROOT
