@<TRIPOS>MOLECULE
molecule
   82    83     1     0     0
SMALL
bcc


@<TRIPOS>ATOM
      1 C27          0.0000     0.0000     0.0000 c          1 A68       0.661100
      2 O27          1.2120     0.0000     0.0000 o          1 A68      -0.622100
      3 C28         -0.7540     0.0000     1.3050 c3         1 A68      -0.168100
      4 N27         -0.6740    -0.0010    -1.1670 ns         1 A68      -0.564900
      5 C22          0.0540     0.1140    -2.4340 c3         1 A68       0.045700
      6 C21         -0.7450     0.9490    -3.3990 c          1 A68       0.659100
      7 O22         -1.8470     1.3490    -3.0870 o          1 A68      -0.603100
      8 C23          0.2710    -1.2810    -3.0240 c3         1 A68      -0.083700
      9 C25         -1.0670    -2.0190    -3.0930 c3         1 A68      -0.081400
     10 C24          1.2410    -2.0660    -2.1380 c3         1 A68      -0.090100
     11 C26         -1.9760    -1.3340    -4.1150 c3         1 A68      -0.116100
     12 N11         -1.1150     2.3820    -9.2800 n3         1 A68      -0.812500
     13 C12          0.0130     3.0060    -9.9750 c3         1 A68       0.238800
     14 C13         -0.4380     4.3340   -10.5890 c3         1 A68      -0.095700
     15 C14         -0.8940     5.2800    -9.4760 c3         1 A68      -0.088100
     16 C15          0.7280     4.9670   -11.3500 c3         1 A68      -0.088100
     17 C17         -0.5630     1.8770    -6.9510 c3         1 A68       0.105100
     18 O18          0.8200     2.1850    -7.1370 oh         1 A68      -0.601800
     19 C19         -0.9590     2.1630    -5.5010 c3         1 A68       0.108700
     20 N20         -0.2360     1.2530    -4.6090 ns         1 A68      -0.582900
     21 C32         -0.6030     3.6100    -5.1510 c3         1 A68      -0.045100
     22 C33         -0.2890     3.7070    -2.6690 ca         1 A68      -0.119000
     23 C34         -0.7490     3.9990    -1.3990 ca         1 A68      -0.120000
     24 C35         -2.0200     4.5130    -1.2240 ca         1 A68      -0.128000
     25 C36         -2.8330     4.7350    -2.3190 ca         1 A68      -0.120000
     26 C37         -2.3740     4.4430    -3.5900 ca         1 A68      -0.119000
     27 C38         -1.1030     3.9290    -3.7660 ca         1 A68      -0.074300
     28 S8          -2.0590     1.2690   -10.0650 sy         1 A68       1.423200
     29 O9          -1.9150     1.5310   -11.4540 o          1 A68      -0.635300
     30 O10         -3.3150     1.2690    -9.4000 o          1 A68      -0.635300
     31 C5          -1.3430    -0.3160    -9.7800 ca         1 A68      -0.359500
     32 C4          -1.7340    -1.0610    -8.6830 ca         1 A68       0.004000
     33 C6          -0.3930    -0.8110   -10.6530 ca         1 A68       0.004000
     34 C3          -1.1750    -2.3050    -8.4580 ca         1 A68      -0.215000
     35 C7           0.1730    -2.0500   -10.4280 ca         1 A68      -0.215000
     36 C2          -0.2210    -2.8040    -9.3320 ca         1 A68       0.192100
     37 O1           0.3310    -4.0260    -9.1120 os         1 A68      -0.322900
     38 C1           1.3070    -4.4760   -10.0530 c3         1 A68       0.125700
     39 H28         -1.6760     0.5560     1.1900 hc         1 A68       0.062033
     40 H28A        -0.9810    -1.0200     1.5910 hc         1 A68       0.062033
     41 H28B        -0.1460     0.4640     2.0730 hc         1 A68       0.062033
     42 HN27        -1.6740    -0.0430    -1.1670 hn         1 A68       0.335500
     43 H22          1.0140     0.5840    -2.2570 h1         1 A68       0.099700
     44 H23          0.6850    -1.1900    -4.0210 hc         1 A68       0.045700
     45 H25         -1.5410    -2.0000    -2.1180 hc         1 A68       0.046700
     46 H25A        -0.8980    -3.0470    -3.3920 hc         1 A68       0.046700
     47 H24          0.6980    -2.5110    -1.3140 hc         1 A68       0.044033
     48 H24A         1.9990    -1.3960    -1.7510 hc         1 A68       0.044033
     49 H24B         1.7140    -2.8460    -2.7230 hc         1 A68       0.044033
     50 H26         -2.5630    -2.0820    -4.6350 hc         1 A68       0.041367
     51 H26A        -1.3710    -0.7900    -4.8300 hc         1 A68       0.041367
     52 H26B        -2.6390    -0.6460    -3.6050 hc         1 A68       0.041367
     53 H12          0.3640     2.3470   -10.7590 h1         1 A68       0.058700
     54 H12A         0.8150     3.1880    -9.2700 h1         1 A68       0.058700
     55 H13         -1.2600     4.1550   -11.2710 hc         1 A68       0.068700
     56 H14         -0.1770     5.2550    -8.6640 hc         1 A68       0.036200
     57 H14A        -0.9630     6.2890    -9.8660 hc         1 A68       0.036200
     58 H14B        -1.8650     4.9670    -9.1110 hc         1 A68       0.036200
     59 H15          1.5360     5.1800   -10.6600 hc         1 A68       0.036200
     60 H15A         1.0760     4.2810   -12.1130 hc         1 A68       0.036200
     61 H15B         0.3980     5.8870   -11.8150 hc         1 A68       0.036200
     62 H16         -1.1720     3.7860    -7.7290 h1         1 A68       0.083700
     63 H16A        -2.4590     2.5730    -7.6870 h1         1 A68       0.083700
     64 H17         -0.7330     0.8300    -7.1730 h1         1 A68       0.041700
     65 HO18         1.2940     1.3950    -7.3370 ho         1 A68       0.403000
     66 H19         -2.0250     2.0140    -5.3820 h1         1 A68       0.090700
     67 HN20         0.6230     0.8360    -4.9090 hn         1 A68       0.314500
     68 H32         -1.0680     4.2780    -5.8650 hc         1 A68       0.060700
     69 H32A         0.4720     3.7360    -5.1850 hc         1 A68       0.060700
     70 H33          0.7070     3.3050    -2.8060 ha         1 A68       0.124500
     71 H34         -0.1120     3.8250    -0.5400 ha         1 A68       0.126500
     72 H35         -2.3800     4.7420    -0.2280 ha         1 A68       0.124000
     73 H36         -3.8290     5.1370    -2.1820 ha         1 A68       0.126500
     74 H37         -3.0110     4.6170    -4.4490 ha         1 A68       0.124500
     75 H4          -2.4800    -0.6710    -8.0010 ha         1 A68       0.153500
     76 H6          -0.0850    -0.2220   -11.5090 ha         1 A68       0.153500
     77 H3          -1.4830    -2.8900    -7.6000 ha         1 A68       0.147500
     78 H7           0.9180    -2.4380   -11.1120 ha         1 A68       0.147500
     79 H1           1.6580    -5.4600    -9.7660 h1         1 A68       0.046700
     80 H1A          0.8620    -4.5250   -11.0390 h1         1 A68       0.046700
     81 H1B          2.1410    -3.7850   -10.0670 h1         1 A68       0.046700
     82 C16         -1.4080     2.7410    -7.8900 c3         1 A68       0.213800
@<TRIPOS>BOND
     1    38    37 1
     2    37    36 1
     3    36    34 ar
     4    36    35 ar
     5    34    32 ar
     6    32    31 ar
     7    31    33 ar
     8    31    28 1
     9    33    35 ar
    10    28    29 2
    11    28    30 2
    12    28    12 1
    13    12    13 1
    14    12    82 1
    15    13    14 1
    16    14    15 1
    17    14    16 1
    18    82    17 1
    19    17    18 1
    20    17    19 1
    21    19    20 1
    22    19    21 1
    23    20     6 1
    24     6     5 1
    25     6     7 2
    26     5     8 1
    27     5     4 1
    28     8    10 1
    29     8     9 1
    30     9    11 1
    31     1     4 1
    32     1     2 2
    33     1     3 1
    34    21    27 1
    35    22    23 ar
    36    22    27 ar
    37    23    24 ar
    38    24    25 ar
    39    25    26 ar
    40    26    27 ar
    41    38    79 1
    42    38    80 1
    43    38    81 1
    44    34    77 1
    45    32    75 1
    46    33    76 1
    47    35    78 1
    48    13    53 1
    49    13    54 1
    50    14    55 1
    51    15    56 1
    52    15    57 1
    53    15    58 1
    54    16    59 1
    55    16    60 1
    56    16    61 1
    57    82    62 1
    58    82    63 1
    59    17    64 1
    60    18    65 1
    61    19    66 1
    62    20    67 1
    63     5    43 1
    64     8    44 1
    65    10    47 1
    66    10    48 1
    67    10    49 1
    68     9    45 1
    69     9    46 1
    70    11    50 1
    71    11    51 1
    72    11    52 1
    73     4    42 1
    74     3    39 1
    75     3    40 1
    76     3    41 1
    77    21    68 1
    78    21    69 1
    79    22    70 1
    80    23    71 1
    81    24    72 1
    82    25    73 1
    83    26    74 1
@<TRIPOS>SUBSTRUCTURE
     1 A68         1 TEMP              0 ****  ****    0 ROOT
