@<TRIPOS>MOLECULE
molecule
   76    80     1     0     0
SMALL
bcc


@<TRIPOS>ATOM
      1 C21          0.0000     0.0000     0.0000 c          1 A69       0.671700
      2 O22          1.2150     0.0000     0.0000 o          1 A69      -0.585100
      3 C22         -0.7390     0.0000     1.2810 ca         1 A69      -0.131600
      4 C27         -0.0440    -0.0050     2.4900 ca         1 A69      -0.087000
      5 C26         -0.7430     0.0020     3.6850 ca         1 A69       0.098100
      6 C25         -2.1320     0.0010     3.6790 ca         1 A69      -0.141000
      7 C24         -2.8220     0.0010     2.4800 ca         1 A69      -0.123000
      8 C23         -2.1350     0.0000     1.2840 ca         1 A69      -0.121000
      9 O27         -0.0700     0.0040     4.8660 oh         1 A69      -0.516100
     10 N11         -0.8120     1.4120    -5.8410 n3         1 A69      -0.810500
     11 C12         -1.7600     0.6590    -6.6640 c3         1 A69       0.233800
     12 C13         -1.0270     0.0550    -7.8630 c3         1 A69      -0.097400
     13 C14         -2.0180    -0.7320    -8.7240 c3         1 A69      -0.033100
     14 C16         -0.0120     0.7220    -4.8270 c3         1 A69       0.227800
     15 C17         -0.8180     0.6070    -3.5310 c3         1 A69       0.105100
     16 O18         -1.9560    -0.2300    -3.7510 oh         1 A69      -0.599800
     17 C19          0.0580    -0.0020    -2.4360 c3         1 A69       0.102700
     18 N20         -0.6740    -0.0010    -1.1670 ns         1 A69      -0.582900
     19 C32          0.4230    -1.4390    -2.8140 c3         1 A69      -0.044100
     20 C33          0.9060    -2.6580    -0.6810 ca         1 A69      -0.117500
     21 C34          1.7890    -3.1690     0.2520 ca         1 A69      -0.119500
     22 C35          3.1510    -3.0210     0.0670 ca         1 A69      -0.125000
     23 C36          3.6300    -2.3610    -1.0480 ca         1 A69      -0.119500
     24 C37          2.7480    -1.8490    -1.9800 ca         1 A69      -0.117500
     25 C38          1.3850    -1.9970    -1.7970 ca         1 A69      -0.074300
     26 C40         -1.2970    -1.3260    -9.9050 ca         1 A69      -0.083300
     27 C41         -0.7350    -2.5860    -9.8100 ca         1 A69      -0.124000
     28 C42         -0.0730    -3.1310   -10.8940 ca         1 A69      -0.126000
     29 C43          0.0270    -2.4180   -12.0730 ca         1 A69      -0.131000
     30 C44         -0.5360    -1.1580   -12.1680 ca         1 A69      -0.126000
     31 C45         -1.2010    -0.6150   -11.0860 ca         1 A69      -0.124000
     32 C1          -3.8160     5.9080    -1.2180 cc         1 A69       0.419100
     33 N1          -4.3690     5.6870    -2.3500 nd         1 A69      -0.583100
     34 S1          -2.2000     5.3570    -1.1920 ss         1 A69      -0.084100
     35 C2          -3.6330     5.0850    -3.3030 ca         1 A69       0.162400
     36 C3          -2.3380     4.7980    -2.8560 ca         1 A69      -0.094100
     37 C4          -1.4250     4.1730    -3.7030 ca         1 A69       0.023000
     38 C5          -1.7970     3.8350    -4.9850 ca         1 A69      -0.311500
     39 C6          -3.0790     4.1170    -5.4350 ca         1 A69      -0.043000
     40 C7          -3.9850     4.7260    -4.6210 ca         1 A69      -0.092000
     41 S8          -0.6420     3.0460    -6.0570 sy         1 A69       1.420200
     42 O9          -1.0720     3.3220    -7.3830 o          1 A69      -0.629300
     43 O10          0.6510     3.3830    -5.5730 o          1 A69      -0.629300
     44 H27          1.0390    -0.0050     2.4950 ha         1 A69       0.171000
     45 H25         -2.6770     0.0040     4.6150 ha         1 A69       0.142000
     46 H24         -3.9050     0.0010     2.4810 ha         1 A69       0.136000
     47 H23         -2.6780     0.0000     0.3470 ha         1 A69       0.123000
     48 HO27        -0.0630     0.8770     5.2230 ho         1 A69       0.421000
     49 H12         -2.2000    -0.1350    -6.0720 h1         1 A69       0.060700
     50 H12A        -2.5410     1.3230    -7.0140 h1         1 A69       0.060700
     51 H13         -0.5870     0.8480    -8.4550 hc         1 A69       0.056700
     52 H13A        -0.2470    -0.6100    -7.5130 hc         1 A69       0.056700
     53 H14         -2.4580    -1.5260    -8.1330 hc         1 A69       0.048700
     54 H14A        -2.7990    -0.0680    -9.0740 hc         1 A69       0.048700
     55 H16          0.2440    -0.2690    -5.1820 h1         1 A69       0.082200
     56 H16A         0.8960     1.2830    -4.6390 h1         1 A69       0.082200
     57 H17         -1.1480     1.5920    -3.2230 h1         1 A69       0.038700
     58 HO18        -2.7040     0.1320    -3.3030 ho         1 A69       0.401000
     59 H19          0.9640     0.5840    -2.3300 h1         1 A69       0.089700
     60 HN20        -1.6740     0.0410    -1.1670 hn         1 A69       0.309500
     61 H32         -0.4750    -2.0460    -2.8330 hc         1 A69       0.059200
     62 H32A         0.8860    -1.4480    -3.7930 hc         1 A69       0.059200
     63 H33         -0.1610    -2.7740    -0.5370 ha         1 A69       0.123000
     64 H34          1.4140    -3.6870     1.1260 ha         1 A69       0.126000
     65 H35          3.8430    -3.4220     0.7980 ha         1 A69       0.125000
     66 H36          4.6980    -2.2450    -1.1920 ha         1 A69       0.126000
     67 H37          3.1230    -1.3320    -2.8550 ha         1 A69       0.123000
     68 H41         -0.8130    -3.1450    -8.8860 ha         1 A69       0.131000
     69 H42          0.3680    -4.1180   -10.8190 ha         1 A69       0.129500
     70 H43          0.5470    -2.8440   -12.9220 ha         1 A69       0.128000
     71 H44         -0.4600    -0.6000   -13.0930 ha         1 A69       0.129500
     72 H45         -1.6420     0.3720   -11.1610 ha         1 A69       0.131000
     73 H4          -0.4240     3.9530    -3.3530 ha         1 A69       0.157000
     74 H6          -3.3630     3.8480    -6.4450 ha         1 A69       0.157000
     75 H7          -4.9810     4.9390    -4.9880 ha         1 A69       0.154000
     76 H1          -4.3110     6.3850    -0.3800 h5         1 A69       0.073800
@<TRIPOS>BOND
     1    32    33 2
     2    32    34 1
     3    33    35 1
     4    34    36 1
     5    35    36 ar
     6    35    40 ar
     7    36    37 ar
     8    37    38 ar
     9    38    39 ar
    10    38    41 1
    11    39    40 ar
    12    41    42 2
    13    41    43 2
    14    41    10 1
    15    10    11 1
    16    10    14 1
    17    11    12 1
    18    12    13 1
    19    13    26 1
    20    14    15 1
    21    15    16 1
    22    15    17 1
    23    17    18 1
    24    17    19 1
    25    18     1 1
    26     1     3 1
    27     1     2 2
    28     3     8 ar
    29     3     4 ar
    30     8     7 ar
    31     7     6 ar
    32     6     5 ar
    33     5     4 ar
    34     5     9 1
    35    19    25 1
    36    20    21 ar
    37    20    25 ar
    38    21    22 ar
    39    22    23 ar
    40    23    24 ar
    41    24    25 ar
    42    26    27 ar
    43    26    31 ar
    44    27    28 ar
    45    28    29 ar
    46    29    30 ar
    47    30    31 ar
    48    32    76 1
    49    37    73 1
    50    39    74 1
    51    40    75 1
    52    11    49 1
    53    11    50 1
    54    12    51 1
    55    12    52 1
    56    13    53 1
    57    13    54 1
    58    14    55 1
    59    14    56 1
    60    15    57 1
    61    16    58 1
    62    17    59 1
    63    18    60 1
    64     8    47 1
    65     7    46 1
    66     6    45 1
    67     4    44 1
    68     9    48 1
    69    19    61 1
    70    19    62 1
    71    20    63 1
    72    21    64 1
    73    22    65 1
    74    23    66 1
    75    24    67 1
    76    27    68 1
    77    28    69 1
    78    29    70 1
    79    30    71 1
    80    31    72 1
@<TRIPOS>SUBSTRUCTURE
     1 A69         1 TEMP              0 ****  ****    0 ROOT
