@<TRIPOS>MOLECULE
molecule
   79    83     1     0     0
SMALL
bcc


@<TRIPOS>ATOM
      1 C1           0.0000     0.0000     0.0000 c3         1 A6B      -0.130000
      2 C2           1.5300     0.0000     0.0000 c3         1 A6B      -0.055733
      3 C3           2.0410     0.0000     1.4430 c3         1 A6B      -0.066033
      4 C4           1.5310    -1.2500     2.1640 c3         1 A6B      -0.069067
      5 C5           0.0010    -1.2510     2.1630 c3         1 A6B      -0.066033
      6 C6          -0.5090    -1.2510     0.7210 c3         1 A6B      -0.055733
      7 C7          -0.5100     1.2490     0.7210 c3         1 A6B      -0.055733
      8 C8           1.5300     1.2490     2.1640 c3         1 A6B      -0.069067
      9 C9          -0.5100    -0.0010     2.8850 c3         1 A6B      -0.069067
     10 C10         -0.0000     1.2490     2.1640 c3         1 A6B      -0.066033
     11 C11         -0.5020    -0.0010    -1.4210 c          1 A6B       0.665100
     12 N12         -1.8270    -0.0010    -1.6670 ns         1 A6B      -0.588900
     13 O13          0.2870    -0.0000    -2.3420 o          1 A6B      -0.609100
     14 C14         -2.3150    -0.0010    -3.0480 c3         1 A6B       0.111000
     15 C15         -3.8460    -0.0010    -3.0480 c3         1 A6B      -0.101400
     16 C16         -4.3550    -0.0010    -4.4910 c3         1 A6B      -0.078400
     17 C17         -5.8860    -0.0020    -4.4900 c3         1 A6B      -0.078400
     18 C18         -6.3950    -0.0020    -5.9330 c3         1 A6B      -0.101400
     19 C19         -7.9260    -0.0020    -5.9330 c3         1 A6B       0.111000
     20 C21        -17.2430     1.4500   -10.9910 c          1 A6B       0.819500
     21 N22        -16.4200     0.4430   -10.6690 ns         1 A6B      -0.595900
     22 C23        -15.8570    -0.1300   -11.9030 c3         1 A6B       0.092700
     23 C24        -16.4860     0.7090   -13.0220 c3         1 A6B       0.091700
     24 N25        -17.3410     1.6720   -12.3080 ns         1 A6B      -0.596900
     25 C26        -15.4310     1.4770   -13.8420 c3         1 A6B       0.012700
     26 S27        -14.0310     1.6300   -12.6600 ss         1 A6B      -0.346200
     27 C28        -14.3220    -0.0030   -11.8650 c3         1 A6B       0.027400
     28 C30        -13.8110    -0.0040   -10.4230 c3         1 A6B      -0.064400
     29 C31        -12.2820    -0.0030   -10.4230 c3         1 A6B      -0.087400
     30 C32        -11.7710    -0.0030    -8.9810 c3         1 A6B      -0.065400
     31 C33        -10.2410    -0.0030    -8.9810 c3         1 A6B      -0.158400
     32 C34         -9.7390    -0.0030    -7.5600 c          1 A6B       0.656100
     33 O35        -10.5280    -0.0030    -6.6390 o          1 A6B      -0.608100
     34 N36         -8.4140    -0.0030    -7.3140 ns         1 A6B      -0.590900
     35 H2           1.8920    -0.8840    -0.5110 hc         1 A6B       0.048533
     36 H2A          1.8920     0.8840    -0.5110 hc         1 A6B       0.048533
     37 H3           3.1240     0.0000     1.4430 hc         1 A6B       0.050700
     38 H4           1.8930    -2.1340     1.6530 hc         1 A6B       0.042367
     39 H4A          1.8920    -1.2490     3.1850 hc         1 A6B       0.042367
     40 H5          -0.3590    -2.1350     2.6740 hc         1 A6B       0.050700
     41 H6          -0.1480    -2.1350     0.2100 hc         1 A6B       0.048533
     42 H6A         -1.5930    -1.2510     0.7220 hc         1 A6B       0.048533
     43 H7          -1.5940     1.2480     0.7210 hc         1 A6B       0.048533
     44 H7A         -0.1500     2.1330     0.2110 hc         1 A6B       0.048533
     45 H8           1.8910     2.1330     1.6540 hc         1 A6B       0.042367
     46 H8A          1.8910     1.2480     3.1860 hc         1 A6B       0.042367
     47 H9          -1.5930    -0.0020     2.8850 hc         1 A6B       0.042367
     48 H9A         -0.1480    -0.0010     3.9060 hc         1 A6B       0.042367
     49 H10         -0.3610     2.1330     2.6750 hc         1 A6B       0.050700
     50 HN12        -2.4770    -0.0100    -0.9060 hn         1 A6B       0.314500
     51 H14         -1.9540    -0.8860    -3.5590 h1         1 A6B       0.053200
     52 H14A        -1.9540     0.8830    -3.5590 h1         1 A6B       0.053200
     53 H15         -4.2070    -0.8860    -2.5380 hc         1 A6B       0.046200
     54 H15A        -4.2070     0.8840    -2.5380 hc         1 A6B       0.046200
     55 H16         -3.9950     0.8840    -5.0010 hc         1 A6B       0.046700
     56 H16A        -3.9940    -0.8850    -5.0010 hc         1 A6B       0.046700
     57 H17         -6.2470     0.8820    -3.9800 hc         1 A6B       0.046700
     58 H17A        -6.2460    -0.8870    -3.9800 hc         1 A6B       0.046700
     59 H18         -6.0340    -0.8870    -6.4430 hc         1 A6B       0.046200
     60 H18A        -6.0340     0.8820    -6.4430 hc         1 A6B       0.046200
     61 H19         -8.2870    -0.8860    -5.4220 h1         1 A6B       0.054200
     62 H19A        -8.2870     0.8830    -5.4220 h1         1 A6B       0.054200
     63 HN22       -16.2200     0.1300    -9.7390 hn         1 A6B       0.365500
     64 H23        -16.1480    -1.1690   -12.0020 h1         1 A6B       0.067700
     65 H24        -17.0860     0.0830   -13.6710 h1         1 A6B       0.066700
     66 HN25       -17.9040     2.3780   -12.7380 hn         1 A6B       0.362500
     67 H26        -15.1350     0.9070   -14.7140 h1         1 A6B       0.080700
     68 H26A       -15.8030     2.4550   -14.1220 h1         1 A6B       0.080700
     69 H28        -13.8610    -0.7950   -12.4430 h1         1 A6B       0.076700
     70 H30        -14.1730     0.8800    -9.9110 hc         1 A6B       0.060200
     71 H30A       -14.1720    -0.8890    -9.9130 hc         1 A6B       0.060200
     72 H31        -11.9220     0.8820   -10.9340 hc         1 A6B       0.046700
     73 H31A       -11.9210    -0.8870   -10.9340 hc         1 A6B       0.046700
     74 H32        -12.1320    -0.8880    -8.4700 hc         1 A6B       0.060200
     75 H32A       -12.1320     0.8810    -8.4700 hc         1 A6B       0.060200
     76 H33         -9.8800    -0.8880    -9.4910 hc         1 A6B       0.059700
     77 H33A        -9.8800     0.8810    -9.4920 hc         1 A6B       0.059700
     78 HN36        -7.7640    -0.0070    -8.0750 hn         1 A6B       0.312500
     79 O29        -17.8510     2.1010   -10.1620 o          1 A6B      -0.680500
@<TRIPOS>BOND
     1     1     2 1
     2     1     6 1
     3     1     7 1
     4     1    11 1
     5     2     3 1
     6     3     4 1
     7     3     8 1
     8     4     5 1
     9     5     6 1
    10     5     9 1
    11     7    10 1
    12     8    10 1
    13     9    10 1
    14    11    12 1
    15    11    13 2
    16    12    14 1
    17    14    15 1
    18    15    16 1
    19    16    17 1
    20    17    18 1
    21    18    19 1
    22    19    34 1
    23    20    21 1
    24    20    24 1
    25    20    79 2
    26    21    22 1
    27    22    23 1
    28    22    27 1
    29    23    24 1
    30    23    25 1
    31    25    26 1
    32    26    27 1
    33    27    28 1
    34    28    29 1
    35    29    30 1
    36    30    31 1
    37    31    32 1
    38    32    33 2
    39    32    34 1
    40     2    35 1
    41     2    36 1
    42     3    37 1
    43     4    38 1
    44     4    39 1
    45     5    40 1
    46     6    41 1
    47     6    42 1
    48     7    43 1
    49     7    44 1
    50     8    45 1
    51     8    46 1
    52     9    47 1
    53     9    48 1
    54    10    49 1
    55    12    50 1
    56    14    51 1
    57    14    52 1
    58    15    53 1
    59    15    54 1
    60    16    55 1
    61    16    56 1
    62    17    57 1
    63    17    58 1
    64    18    59 1
    65    18    60 1
    66    19    61 1
    67    19    62 1
    68    21    63 1
    69    22    64 1
    70    23    65 1
    71    24    66 1
    72    25    67 1
    73    25    68 1
    74    27    69 1
    75    28    70 1
    76    28    71 1
    77    29    72 1
    78    29    73 1
    79    30    74 1
    80    30    75 1
    81    31    76 1
    82    31    77 1
    83    34    78 1
@<TRIPOS>SUBSTRUCTURE
     1 A6B         1 TEMP              0 ****  ****    0 ROOT
