@<TRIPOS>MOLECULE
A6B
   79    83     1     0     0
SMALL
bcc


@<TRIPOS>ATOM
      1 C1           0.0000     0.0000     0.0000 c3         1 A6B      -0.131000
      2 C2           1.5300     0.0000     0.0000 c3         1 A6B      -0.005733
      3 C3           2.0410     0.0000     1.4430 c3         1 A6B      -0.040367
      4 C4           1.5310    -1.2500     2.1640 c3         1 A6B      -0.016733
      5 C5           0.0010    -1.2510     2.1630 c3         1 A6B      -0.040367
      6 C6          -0.5090    -1.2510     0.7210 c3         1 A6B      -0.005733
      7 C7          -0.5100     1.2490     0.7210 c3         1 A6B      -0.005733
      8 C8           1.5300     1.2490     2.1640 c3         1 A6B      -0.016733
      9 C9          -0.5100    -0.0010     2.8850 c3         1 A6B      -0.016733
     10 C10         -0.0000     1.2490     2.1640 c3         1 A6B      -0.040367
     11 C11         -0.5020    -0.0010    -1.4210 c          1 A6B       0.582100
     12 N12         -1.8270    -0.0010    -1.6670 ns         1 A6B      -0.205900
     13 O13          0.2870    -0.0000    -2.3420 o          1 A6B      -0.646100
     14 C14         -2.3150    -0.0010    -3.0480 c3         1 A6B       0.049000
     15 C15         -3.8460    -0.0010    -3.0480 c3         1 A6B      -0.042400
     16 C16         -4.3550    -0.0010    -4.4910 c3         1 A6B      -0.022400
     17 C17         -5.8860    -0.0020    -4.4900 c3         1 A6B      -0.022400
     18 C18         -6.3950    -0.0020    -5.9330 c3         1 A6B      -0.042400
     19 C19         -7.9260    -0.0020    -5.9330 c3         1 A6B       0.050000
     20 C21        -17.2430     1.4500   -10.9910 c          1 A6B       0.622500
     21 N22        -16.4200     0.4430   -10.6690 ns         1 A6B      -0.216900
     22 C23        -15.8570    -0.1300   -11.9030 c3         1 A6B       0.009700
     23 C24        -16.4860     0.7090   -13.0220 c3         1 A6B       0.007700
     24 N25        -17.3410     1.6720   -12.3080 ns         1 A6B      -0.211900
     25 C26        -15.4310     1.4770   -13.8420 c3         1 A6B       0.087700
     26 S27        -14.0310     1.6300   -12.6600 ss         1 A6B      -0.398200
     27 C28        -14.3220    -0.0030   -11.8650 c3         1 A6B       0.066400
     28 C30        -13.8110    -0.0040   -10.4230 c3         1 A6B      -0.016400
     29 C31        -12.2820    -0.0030   -10.4230 c3         1 A6B      -0.036400
     30 C32        -11.7710    -0.0030    -8.9810 c3         1 A6B      -0.013400
     31 C33        -10.2410    -0.0030    -8.9810 c3         1 A6B      -0.096400
     32 C34         -9.7390    -0.0030    -7.5600 c          1 A6B       0.570100
     33 O35        -10.5280    -0.0030    -6.6390 o          1 A6B      -0.646100
     34 N36         -8.4140    -0.0030    -7.3140 ns         1 A6B      -0.203900
     35 H2           1.8920    -0.8840    -0.5110 hc         1 A6B       0.021700
     36 H2A          1.8920     0.8840    -0.5110 hc         1 A6B       0.021700
     37 H3           3.1240     0.0000     1.4430 hc         1 A6B       0.025367
     38 H4           1.8930    -2.1340     1.6530 hc         1 A6B       0.016033
     39 H4A          1.8920    -1.2490     3.1850 hc         1 A6B       0.016033
     40 H5          -0.3590    -2.1350     2.6740 hc         1 A6B       0.025367
     41 H6          -0.1480    -2.1350     0.2100 hc         1 A6B       0.021700
     42 H6A         -1.5930    -1.2510     0.7220 hc         1 A6B       0.021700
     43 H7          -1.5940     1.2480     0.7210 hc         1 A6B       0.021700
     44 H7A         -0.1500     2.1330     0.2110 hc         1 A6B       0.021700
     45 H8           1.8910     2.1330     1.6540 hc         1 A6B       0.016033
     46 H8A          1.8910     1.2480     3.1860 hc         1 A6B       0.016033
     47 H9          -1.5930    -0.0020     2.8850 hc         1 A6B       0.016033
     48 H9A         -0.1480    -0.0010     3.9060 hc         1 A6B       0.016033
     49 H10         -0.3610     2.1330     2.6750 hc         1 A6B       0.025367
     50 HN12        -2.4770    -0.0100    -0.9060 hn         1 A6B       0.180500
     51 H14         -1.9540    -0.8860    -3.5590 h1         1 A6B       0.026700
     52 H14A        -1.9540     0.8830    -3.5590 h1         1 A6B       0.026700
     53 H15         -4.2070    -0.8860    -2.5380 hc         1 A6B       0.017700
     54 H15A        -4.2070     0.8840    -2.5380 hc         1 A6B       0.017700
     55 H16         -3.9950     0.8840    -5.0010 hc         1 A6B       0.018700
     56 H16A        -3.9940    -0.8850    -5.0010 hc         1 A6B       0.018700
     57 H17         -6.2470     0.8820    -3.9800 hc         1 A6B       0.019200
     58 H17A        -6.2460    -0.8870    -3.9800 hc         1 A6B       0.019200
     59 H18         -6.0340    -0.8870    -6.4430 hc         1 A6B       0.017200
     60 H18A        -6.0340     0.8820    -6.4430 hc         1 A6B       0.017200
     61 H19         -8.2870    -0.8860    -5.4220 h1         1 A6B       0.027200
     62 H19A        -8.2870     0.8830    -5.4220 h1         1 A6B       0.027200
     63 HN22       -16.2200     0.1300    -9.7390 hn         1 A6B       0.223500
     64 H23        -16.1480    -1.1690   -12.0020 h1         1 A6B       0.039700
     65 H24        -17.0860     0.0830   -13.6710 h1         1 A6B       0.037700
     66 HN25       -17.9040     2.3780   -12.7380 hn         1 A6B       0.214500
     67 H26        -15.1350     0.9070   -14.7140 h1         1 A6B       0.054700
     68 H26A       -15.8030     2.4550   -14.1220 h1         1 A6B       0.054700
     69 H28        -13.8610    -0.7950   -12.4430 h1         1 A6B       0.058700
     70 H30        -14.1730     0.8800    -9.9110 hc         1 A6B       0.034200
     71 H30A       -14.1720    -0.8890    -9.9130 hc         1 A6B       0.034200
     72 H31        -11.9220     0.8820   -10.9340 hc         1 A6B       0.021700
     73 H31A       -11.9210    -0.8870   -10.9340 hc         1 A6B       0.021700
     74 H32        -12.1320    -0.8880    -8.4700 hc         1 A6B       0.032200
     75 H32A       -12.1320     0.8810    -8.4700 hc         1 A6B       0.032200
     76 H33         -9.8800    -0.8880    -9.4910 hc         1 A6B       0.027200
     77 H33A        -9.8800     0.8810    -9.4920 hc         1 A6B       0.027200
     78 HN36        -7.7640    -0.0070    -8.0750 hn         1 A6B       0.173500
     79 O29        -17.8510     2.1010   -10.1620 o          1 A6B      -0.724500
@<TRIPOS>BOND
     1     1     2 1   
     2     1     6 1   
     3     1     7 1   
     4     1    11 1   
     5     2     3 1   
     6     2    35 1   
     7     2    36 1   
     8     3     4 1   
     9     3     8 1   
    10     3    37 1   
    11     4     5 1   
    12     4    38 1   
    13     4    39 1   
    14     5     6 1   
    15     5     9 1   
    16     5    40 1   
    17     6    41 1   
    18     6    42 1   
    19     7    10 1   
    20     7    43 1   
    21     7    44 1   
    22     8    10 1   
    23     8    45 1   
    24     8    46 1   
    25     9    10 1   
    26     9    47 1   
    27     9    48 1   
    28    10    49 1   
    29    11    12 1   
    30    11    13 2   
    31    12    14 1   
    32    12    50 1   
    33    14    15 1   
    34    14    51 1   
    35    14    52 1   
    36    15    16 1   
    37    15    53 1   
    38    15    54 1   
    39    16    17 1   
    40    16    55 1   
    41    16    56 1   
    42    17    18 1   
    43    17    57 1   
    44    17    58 1   
    45    18    19 1   
    46    18    59 1   
    47    18    60 1   
    48    19    34 1   
    49    19    61 1   
    50    19    62 1   
    51    20    21 1   
    52    20    24 1   
    53    20    79 2   
    54    21    22 1   
    55    21    63 1   
    56    22    23 1   
    57    22    27 1   
    58    22    64 1   
    59    23    24 1   
    60    23    25 1   
    61    23    65 1   
    62    24    66 1   
    63    25    26 1   
    64    25    67 1   
    65    25    68 1   
    66    26    27 1   
    67    27    28 1   
    68    27    69 1   
    69    28    29 1   
    70    28    70 1   
    71    28    71 1   
    72    29    30 1   
    73    29    72 1   
    74    29    73 1   
    75    30    31 1   
    76    30    74 1   
    77    30    75 1   
    78    31    32 1   
    79    31    76 1   
    80    31    77 1   
    81    32    33 2   
    82    32    34 1   
    83    34    78 1   
@<TRIPOS>SUBSTRUCTURE
     1 A6B         1 TEMP              0 ****  ****    0 ROOT
