@<TRIPOS>MOLECULE
A6D
   48    47     1     0     0
SMALL
bcc


@<TRIPOS>ATOM
      1 N1          1.1010   -2.8180    4.4720 n2        1 A6D     -0.327000
      2 C2          1.5770   -3.6290    3.7510 c1        1 A6D      0.194000
      3 N3          1.4340    0.5110    2.8930 n2        1 A6D     -0.272000
      4 C4          1.7720   -0.1080    3.9760 c2        1 A6D      0.127000
      5 C5          0.8070   -0.5150    5.0670 c2        1 A6D     -0.136000
      6 C6          0.5320   -1.8600    5.3050 c2        1 A6D      0.228000
      7 N6         -0.3580   -2.2880    6.2950 n3        1 A6D     -0.317000
      8 N7          0.2550    0.5040    5.7950 n2        1 A6D     -0.275000
      9 C8         -0.2240    1.3940    6.4130 c1        1 A6D      0.133000
     10 N9          3.1060   -0.5570    4.2300 n3        1 A6D     -0.224000
     11 OAC         7.1940    2.5350    5.1480 oh        1 A6D     -0.326000
     12 OAD         4.0470   -0.3480    1.3450 oh        1 A6D     -0.241000
     13 CAF         4.9830   -4.8560    9.4750 c1        1 A6D     -0.163000
     14 CAG         5.7120   -4.0130   10.1930 c2        1 A6D     -0.092000
     15 CAH         3.9410   -4.7260    8.6620 c2        1 A6D     -0.060000
     16 CAK         4.1260   -2.3740    9.2830 c2        1 A6D     -0.021000
     17 CAL         9.5490   -3.1550    5.8280 c1        1 A6D     -0.821000
     18 OAQ         4.8610    0.9790    4.6630 os        1 A6D     -0.238000
     19 SAR         8.4290   -2.5330    5.4250 ss        1 A6D      1.163000
     20 SAS         7.1860   -1.5030    6.8510 ss        1 A6D     -0.611000
     21 CAT         5.5470   -2.5970    9.7150 c3        1 A6D     -0.163000
     22 CAV         3.3210   -3.3970    8.8670 c2        1 A6D     -0.158000
     23 CAY         6.7220    1.5080    5.9910 c3        1 A6D     -0.018000
     24 CAZ         4.5980    0.2750    2.4190 c2        1 A6D      0.029000
     25 CBA         6.0740    0.3860    5.1680 c3        1 A6D     -0.015000
     26 CBB         4.1900    0.2000    3.7110 c2        1 A6D     -0.068000
     27 NBD         1.9240   -3.1780    8.4570 no        1 A6D      0.568000
     28 H2          0.4590    0.7010    2.8040 hn        1 A6D      0.169000
     29 HN6        -0.3420   -3.2630    6.5170 hn        1 A6D      0.224000
     30 HN6A       -0.3720   -1.7090    7.1110 hn        1 A6D      0.224000
     31 H8          3.2370   -0.7230    5.2130 hn        1 A6D      0.200000
     32 HOAC        6.4220    2.9160    4.7080 ho        1 A6D      0.210000
     33 HOAD        3.1990   -0.7520    1.5870 ho        1 A6D      0.243000
     34 HAG         6.2270   -2.3160    8.8450 hc        1 A6D      0.164500
     35 HAH         3.5960   -5.3900    7.8650 ha        1 A6D      0.183000
     36 HAK         3.7770   -1.3270    9.2940 ha        1 A6D      0.169000
     37 HAL        10.4390   -3.6460    6.1620 ha        1 A6D      0.224000
     38 HALA        5.7930   -1.9070   10.5660 hc        1 A6D      0.164500
     39 HAY         7.6290    1.1090    6.5210 h1        1 A6D      0.109500
     40 HAZ         5.9840    1.9100    6.7330 h1        1 A6D      0.109500
     41 HBA         6.7320    0.1160    4.2980 h1        1 A6D      0.091000
     42 HBB         5.4780    0.8680    2.1160 h4        1 A6D      0.176000
     43 CAM         5.7650   -0.8370    6.0080 c3        1 A6D     -0.174000
     44 HAF         6.2900   -4.2310   11.0940 ha        1 A6D      0.163000
     45 OAB         1.3040   -4.0760    7.9480 o         1 A6D     -0.381000
     46 OAE         1.4230   -2.0910    8.6100 o         1 A6D     -0.381000
     47 HAM         5.0390   -0.5720    6.8150 h1        1 A6D      0.108500
     48 HAMA        5.3240   -1.6390    5.3700 h1        1 A6D      0.108500
@<TRIPOS>BOND
     1    1    2 1   
     2    1    6 1   
     3    3    4 1   
     4    3   28 1   
     5    4    5 1   
     6    4   10 1   
     7    5    6 1   
     8    5    8 1   
     9    6    7 1   
    10    7   29 1   
    11    7   30 1   
    12    8    9 1   
    13   10   26 1   
    14   10   31 1   
    15   11   23 1   
    16   11   32 1   
    17   12   24 1   
    18   12   33 1   
    19   13   14 1   
    20   13   15 1   
    21   14   21 1   
    22   14   44 1   
    23   15   22 1   
    24   15   35 1   
    25   16   21 1   
    26   16   22 1   
    27   16   36 1   
    28   17   19 1   
    29   17   37 1   
    30   18   25 1   
    31   18   26 1   
    32   19   20 1   
    33   20   43 1   
    34   21   34 1   
    35   21   38 1   
    36   22   27 1   
    37   23   25 1   
    38   23   39 1   
    39   23   40 1   
    40   24   26 1   
    41   24   42 1   
    42   25   41 1   
    43   25   43 1   
    44   27   45 1   
    45   27   46 1   
    46   43   47 1   
    47   43   48 1   
@<TRIPOS>SUBSTRUCTURE
     1 A6D         1 TEMP              0 ****  ****    0 ROOT
