@<TRIPOS>MOLECULE
molecule
   48    51     1     0     0
SMALL
bcc


@<TRIPOS>ATOM
      1 N1           0.0000     0.0000     0.0000 nb         1 A6D      -0.817000
      2 C2           1.3210     0.0000     0.0000 ca         1 A6D       0.730900
      3 N3           2.0270     0.0000     1.1100 nb         1 A6D      -0.777000
      4 C4           1.4270     0.0020     2.2960 ca         1 A6D       0.466800
      5 C5           0.0220     0.0020     2.3500 ca         1 A6D      -0.197200
      6 C6          -0.6880     0.0010     1.1370 ca         1 A6D       0.783200
      7 N6          -2.0720     0.0010     1.1280 nv         1 A6D      -1.008500
      8 N7          -0.3270     0.0020     3.6580 nc         1 A6D      -0.582100
      9 C8           0.7480     0.0030     4.3940 cd         1 A6D       0.430700
     10 N9           1.8550     0.0020     3.5990 na         1 A6D      -0.263000
     11 OAC          6.1430     1.5850     5.0580 oh         1 A6D      -0.570800
     12 OAD          4.4830     1.8940     3.1510 oh         1 A6D      -0.560800
     13 CAF          7.3450    -5.9020    10.9140 ca         1 A6D      -0.129000
     14 CAG          7.7980    -5.1740     9.8310 ca         1 A6D      -0.078000
     15 CAH          6.4200    -5.3480    11.7800 ca         1 A6D      -0.079000
     16 CAK          6.4050    -3.3380    10.4770 ca         1 A6D      -0.072000
     17 CAL          7.9320    -2.6970     8.1200 c3         1 A6D       0.067000
     18 OAQ          3.5390    -0.8080     5.2270 os         1 A6D      -0.396600
     19 SAR          6.8060    -2.9900     6.7290 ss         1 A6D      -0.151100
     20 SAS          4.9820    -2.4400     7.4890 ss         1 A6D      -0.127100
     21 CAT          7.3290    -3.8930     9.6120 ca         1 A6D      -0.103300
     22 CAV          5.9500    -4.0660    11.5610 ca         1 A6D      -0.150200
     23 CAY          4.8390     1.1590     5.4550 c3         1 A6D       0.085100
     24 CAZ          3.8300     1.3530     4.3010 c3         1 A6D       0.086100
     25 CBA          4.8220    -0.3630     5.7170 c3         1 A6D       0.131100
     26 CBB          3.3240    -0.0760     4.0020 c3         1 A6D       0.266800
     27 NBD          4.9850    -3.4610    12.5070 no         1 A6D       0.295200
     28 H2           1.8420    -0.0010    -0.9500 h5         1 A6D       0.062100
     29 HN6         -2.5760     0.5300     1.8120 hn         1 A6D       0.448300
     30 HN6A        -2.5680    -0.5240     0.4360 hn         1 A6D       0.448300
     31 H8           0.7600     0.0050     5.4770 h5         1 A6D       0.083800
     32 HOAC         6.3790     2.3630     5.5350 ho         1 A6D       0.405000
     33 HOAD         4.3650     2.8290     3.1340 ho         1 A6D       0.409000
     34 HAG          8.5230    -5.6090     9.1520 ha         1 A6D       0.146000
     35 HAH          6.0640    -5.9180    12.6290 ha         1 A6D       0.166000
     36 HAK          6.0370    -2.3340    10.3060 ha         1 A6D       0.165000
     37 HAL          7.7680    -1.7010     8.5140 h1         1 A6D       0.082200
     38 HALA         8.9570    -2.7860     7.7800 h1         1 A6D       0.082200
     39 HAY          4.5100     1.6970     6.3370 h1         1 A6D       0.048700
     40 HAZ          3.0110     1.9890     4.6140 h1         1 A6D       0.058700
     41 HBA          5.6200    -0.8460     5.1670 h1         1 A6D       0.092700
     42 HBB          3.9000    -0.5160     3.1970 h2         1 A6D       0.120700
     43 CAM          4.9490    -0.6470     7.2150 c3         1 A6D      -0.012300
     44 HAF          7.7130    -6.9060    11.0860 ha         1 A6D       0.151000
     45 OAB          4.6060    -4.0920    13.4770 o          1 A6D      -0.207500
     46 OAE          4.5710    -2.3310    12.3150 o          1 A6D      -0.207500
     47 HAM          4.1030    -0.2180     7.7370 h1         1 A6D       0.087700
     48 HAMA         5.8660    -0.2080     7.5890 h1         1 A6D       0.087700
@<TRIPOS>BOND
     1     1     2 ar
     2     1     6 ar
     3     2     3 ar
     4     2    28 1
     5     3     4 ar
     6     4     5 ar
     7     4    10 1
     8     5     6 ar
     9     5     8 1
    10     6     7 1
    11     7    29 1
    12     7    30 1
    13     8     9 2
    14     9    10 1
    15     9    31 1
    16    10    26 1
    17    45    27 1
    18    11    23 1
    19    11    32 1
    20    12    24 1
    21    12    33 1
    22    46    27 1
    23    13    14 ar
    24    13    15 ar
    25    13    44 1
    26    14    21 ar
    27    14    34 1
    28    15    22 ar
    29    15    35 1
    30    16    21 ar
    31    16    22 ar
    32    16    36 1
    33    17    19 1
    34    17    21 1
    35    17    37 1
    36    17    38 1
    37    43    20 1
    38    43    25 1
    39    43    47 1
    40    43    48 1
    41    18    25 1
    42    18    26 1
    43    19    20 1
    44    22    27 1
    45    23    24 1
    46    23    25 1
    47    23    39 1
    48    24    26 1
    49    24    40 1
    50    25    41 1
    51    26    42 1
@<TRIPOS>SUBSTRUCTURE
     1 A6D         1 TEMP              0 ****  ****    0 ROOT
