@<TRIPOS>MOLECULE
molecule
   34    35     1     0     0
SMALL
bcc


@<TRIPOS>ATOM
      1 C12          0.0000     0.0000     0.0000 ca         1 A6E      -0.129500
      2 C11          1.3820     0.0000     0.0000 ca         1 A6E      -0.165500
      3 C10          8.2830    -0.0010     5.0010 c3         1 A6E       0.098500
      4 C9           9.0550    -1.3110     5.1860 c3         1 A6E      -0.002800
      5 C8           9.2050    -1.3120     2.3580 c3         1 A6E      -0.002800
      6 C7           8.4190    -0.0020     2.4600 c3         1 A6E       0.098500
      7 C4           4.0820     0.0000     2.4760 c3         1 A6E       0.150400
      8 C5           5.5980    -0.0000     2.2770 c3         1 A6E      -0.159400
      9 C6           6.2820    -0.0010     3.6210 c          1 A6E       0.666100
     10 C3           2.0750     0.0000     1.2010 ca         1 A6E       0.130100
     11 C2           1.3800     0.0010     2.4020 ca         1 A6E      -0.165500
     12 C1          -0.0020     0.0010     2.3990 ca         1 A6E      -0.129500
     13 O1           5.6200    -0.0000     4.6370 o          1 A6E      -0.610100
     14 N            7.6270    -0.0010     3.6920 n          1 A6E      -0.494800
     15 S           10.2570    -1.4790     3.8330 ss         1 A6E      -0.345200
     16 O            3.4340    -0.0000     1.2020 os         1 A6E      -0.339900
     17 C           -0.6930     0.0000     1.1990 ca         1 A6E       0.093900
     18 F           -2.0440     0.0010     1.1970 f          1 A6E      -0.142900
     19 H1          -0.5410    -0.0000    -0.9380 ha         1 A6E       0.148000
     20 H2           1.9230    -0.0000    -0.9380 ha         1 A6E       0.148500
     21 H4           7.5340     0.0880     5.7780 h1         1 A6E       0.070200
     22 H5           8.3640    -2.1450     5.1630 h1         1 A6E       0.079450
     23 H6           9.5780    -1.2920     6.1350 h1         1 A6E       0.079450
     24 H7           9.8260    -1.2950     1.4710 h1         1 A6E       0.079450
     25 H8           8.5150    -2.1460     2.3090 h1         1 A6E       0.079450
     26 H9           9.1100     0.8320     2.4760 h1         1 A6E       0.070200
     27 H10          7.7570     0.0880     1.6070 h1         1 A6E       0.070200
     28 H11          3.7900    -0.8840     3.0300 h1         1 A6E       0.054200
     29 H12          3.7900     0.8850     3.0290 h1         1 A6E       0.054200
     30 H13          5.8900     0.8850     1.7240 hc         1 A6E       0.074700
     31 H14          5.8900    -0.8840     1.7230 hc         1 A6E       0.074700
     32 H15          1.9190     0.0010     3.3410 ha         1 A6E       0.148500
     33 H16         -0.5450     0.0010     3.3360 ha         1 A6E       0.148000
     34 H3           8.9720     0.8330     5.0580 h1         1 A6E       0.070200
@<TRIPOS>BOND
     1     1     2 ar
     2     1    17 ar
     3     2    10 ar
     4    18    17 1
     5    17    12 ar
     6     7     8 1
     7     7    16 1
     8    10    16 1
     9    10    11 ar
    10     8     9 1
    11    12    11 ar
    12     9    13 2
    13     9    14 1
    14     3    14 1
    15     3     4 1
    16    14     6 1
    17     4    15 1
    18     6     5 1
    19    15     5 1
    20     1    19 1
    21     2    20 1
    22     3    34 1
    23     3    21 1
    24     4    22 1
    25     4    23 1
    26     5    24 1
    27     5    25 1
    28     6    26 1
    29     6    27 1
    30     7    28 1
    31     7    29 1
    32     8    30 1
    33     8    31 1
    34    11    32 1
    35    12    33 1
@<TRIPOS>SUBSTRUCTURE
     1 A6E         1 TEMP              0 ****  ****    0 ROOT
