@<TRIPOS>MOLECULE
A6E
   34    35     1     0     0
SMALL
bcc


@<TRIPOS>ATOM
      1 C12          0.0000     0.0000     0.0000 ca         1 A6E      -0.089500
      2 C11          1.3820     0.0000     0.0000 ca         1 A6E      -0.152000
      3 C10          8.2830    -0.0010     5.0010 c3         1 A6E       0.039500
      4 C9           9.0550    -1.3110     5.1860 c3         1 A6E       0.070700
      5 C8           9.2050    -1.3120     2.3580 c3         1 A6E       0.070700
      6 C7           8.4190    -0.0020     2.4600 c3         1 A6E       0.039500
      7 C4           4.0820     0.0000     2.4760 c3         1 A6E       0.213400
      8 C5           5.5980    -0.0000     2.2770 c3         1 A6E      -0.109400
      9 C6           6.2820    -0.0010     3.6210 c          1 A6E       0.595100
     10 C3           2.0750     0.0000     1.2010 ca         1 A6E       0.143100
     11 C2           1.3800     0.0010     2.4020 ca         1 A6E      -0.152000
     12 C1          -0.0020     0.0010     2.3990 ca         1 A6E      -0.089500
     13 O1           5.6200    -0.0000     4.6370 o          1 A6E      -0.645100
     14 N            7.6270    -0.0010     3.6920 n          1 A6E      -0.161800
     15 S           10.2570    -1.4790     3.8330 ss         1 A6E      -0.395200
     16 O            3.4340    -0.0000     1.2020 os         1 A6E      -0.314900
     17 C           -0.6930     0.0000     1.1990 ca         1 A6E       0.061900
     18 F           -2.0440     0.0010     1.1970 f          1 A6E      -0.129900
     19 H1          -0.5410    -0.0000    -0.9380 ha         1 A6E       0.118000
     20 H2           1.9230    -0.0000    -0.9380 ha         1 A6E       0.124500
     21 H4           7.5340     0.0880     5.7780 h1         1 A6E       0.045450
     22 H5           8.3640    -2.1450     5.1630 h1         1 A6E       0.054950
     23 H6           9.5780    -1.2920     6.1350 h1         1 A6E       0.054950
     24 H7           9.8260    -1.2950     1.4710 h1         1 A6E       0.054950
     25 H8           8.5150    -2.1460     2.3090 h1         1 A6E       0.054950
     26 H9           9.1100     0.8320     2.4760 h1         1 A6E       0.045450
     27 H10          7.7570     0.0880     1.6070 h1         1 A6E       0.045450
     28 H11          3.7900    -0.8840     3.0300 h1         1 A6E       0.019700
     29 H12          3.7900     0.8850     3.0290 h1         1 A6E       0.019700
     30 H13          5.8900     0.8850     1.7240 hc         1 A6E       0.040700
     31 H14          5.8900    -0.8840     1.7230 hc         1 A6E       0.040700
     32 H15          1.9190     0.0010     3.3410 ha         1 A6E       0.124500
     33 H16         -0.5450     0.0010     3.3360 ha         1 A6E       0.118000
     34 H3           8.9720     0.8330     5.0580 h1         1 A6E       0.045450
@<TRIPOS>BOND
     1     1     2 ar  
     2     1    17 ar  
     3     1    19 1   
     4     2    10 ar  
     5     2    20 1   
     6     3     4 1   
     7     3    14 1   
     8     3    21 1   
     9     3    34 1   
    10     4    15 1   
    11     4    22 1   
    12     4    23 1   
    13     5     6 1   
    14     5    15 1   
    15     5    24 1   
    16     5    25 1   
    17     6    14 1   
    18     6    26 1   
    19     6    27 1   
    20     7     8 1   
    21     7    16 1   
    22     7    28 1   
    23     7    29 1   
    24     8     9 1   
    25     8    30 1   
    26     8    31 1   
    27     9    13 2   
    28     9    14 1   
    29    10    11 ar  
    30    10    16 1   
    31    11    12 ar  
    32    11    32 1   
    33    12    17 ar  
    34    12    33 1   
    35    17    18 1   
@<TRIPOS>SUBSTRUCTURE
     1 A6E         1 TEMP              0 ****  ****    0 ROOT
