@<TRIPOS>MOLECULE
A6H
   24    25     1     0     0
SMALL
bcc


@<TRIPOS>ATOM
      1 C10          0.0000     0.0000     0.0000 ca         1 A6H       0.432200
      2 C9           4.2690     1.2030    -0.7750 ca         1 A6H      -0.038100
      3 C8           4.8720     1.2000    -2.0190 ca         1 A6H      -0.089000
      4 C7           5.1690     0.0020    -2.6420 ca         1 A6H      -0.085000
      5 C4           3.9650     0.0000    -0.1500 ca         1 A6H       0.128100
      6 C5           4.2690    -1.2000    -0.7760 ca         1 A6H      -0.038100
      7 C6           4.8630    -1.1970    -2.0240 ca         1 A6H      -0.089000
      8 C3           2.0150     0.0000     1.1240 ca         1 A6H       0.607600
      9 C2           1.3750    -0.0000     2.3570 ca         1 A6H      -0.234300
     10 C1          -0.0080     0.0110     2.3980 ca         1 A6H      -0.047000
     11 Cl           3.8850    -2.7060    -0.0000 cl         1 A6H      -0.002900
     12 O            3.3720     0.0000     1.0740 os         1 A6H      -0.334400
     13 N1           1.3200     0.0000     0.0000 nb         1 A6H      -0.644000
     14 C           -0.7080     0.0050     1.1930 ca         1 A6H      -0.127700
     15 N           -2.1080     0.0050     1.1860 nv         1 A6H      -0.546200
     16 H1          -0.5360    -0.0020    -0.9410 h4         1 A6H      -0.015900
     17 H2           5.1110     2.1370    -2.5060 ha         1 A6H       0.117000
     18 H3           5.6380     0.0030    -3.6190 ha         1 A6H       0.109000
     19 H4           5.0990    -2.1340    -2.5140 ha         1 A6H       0.117000
     20 H5           1.9510     0.0040     3.2740 ha         1 A6H       0.125000
     21 H6          -0.5340     0.0130     3.3450 ha         1 A6H       0.114000
     22 H7          -2.6080     0.8720     1.1780 hn         1 A6H       0.272800
     23 H8          -2.6080    -0.8620     1.1830 hn         1 A6H       0.272800
     24 Cl1          3.8960     2.7070     0.0070 cl         1 A6H      -0.002900
@<TRIPOS>BOND
     1     1    13 ar  
     2     1    14 ar  
     3     1    16 1   
     4     2     3 ar  
     5     2     5 ar  
     6     2    24 1   
     7     3     4 ar  
     8     3    17 1   
     9     4     7 ar  
    10     4    18 1   
    11     5     6 ar  
    12     5    12 1   
    13     6     7 ar  
    14     6    11 1   
    15     7    19 1   
    16     8     9 ar  
    17     8    12 1   
    18     8    13 ar  
    19     9    10 ar  
    20     9    20 1   
    21    10    14 ar  
    22    10    21 1   
    23    14    15 1   
    24    15    22 1   
    25    15    23 1   
@<TRIPOS>SUBSTRUCTURE
     1 A6H         1 TEMP              0 ****  ****    0 ROOT
