@<TRIPOS>MOLECULE
molecule
   24    25     1     0     0
SMALL
bcc


@<TRIPOS>ATOM
      1 C10          0.0000     0.0000     0.0000 ca         1 A6H       0.444200
      2 C9           4.2690     1.2030    -0.7750 ca         1 A6H       0.036900
      3 C8           4.8720     1.2000    -2.0190 ca         1 A6H      -0.116000
      4 C7           5.1690     0.0020    -2.6420 ca         1 A6H      -0.112000
      5 C4           3.9650     0.0000    -0.1500 ca         1 A6H       0.128100
      6 C5           4.2690    -1.2000    -0.7760 ca         1 A6H       0.036900
      7 C6           4.8630    -1.1970    -2.0240 ca         1 A6H      -0.116000
      8 C3           2.0150     0.0000     1.1240 ca         1 A6H       0.646600
      9 C2           1.3750    -0.0000     2.3570 ca         1 A6H      -0.252300
     10 C1          -0.0080     0.0110     2.3980 ca         1 A6H      -0.083000
     11 Cl           3.8850    -2.7060    -0.0000 cl         1 A6H      -0.083900
     12 O            3.3720     0.0000     1.0740 os         1 A6H      -0.347400
     13 N1           1.3200     0.0000     0.0000 nb         1 A6H      -0.752000
     14 C           -0.7080     0.0050     1.1930 ca         1 A6H       0.006300
     15 N           -2.1080     0.0050     1.1860 nv         1 A6H      -0.983200
     16 H1          -0.5360    -0.0020    -0.9410 h4         1 A6H       0.030100
     17 H2           5.1110     2.1370    -2.5060 ha         1 A6H       0.150000
     18 H3           5.6380     0.0030    -3.6190 ha         1 A6H       0.144000
     19 H4           5.0990    -2.1340    -2.5140 ha         1 A6H       0.150000
     20 H5           1.9510     0.0040     3.2740 ha         1 A6H       0.152000
     21 H6          -0.5340     0.0130     3.3450 ha         1 A6H       0.148000
     22 H7          -2.6080     0.8720     1.1780 hn         1 A6H       0.428800
     23 H8          -2.6080    -0.8620     1.1830 hn         1 A6H       0.428800
     24 Cl1          3.8960     2.7070     0.0070 cl         1 A6H      -0.083900
@<TRIPOS>BOND
     1    15    14 1
     2    14     1 ar
     3    14    10 ar
     4     1    13 ar
     5    10     9 ar
     6    13     8 ar
     7     9     8 ar
     8     8    12 1
     9    11     6 1
    10     6     7 ar
    11     6     5 ar
    12    12     5 1
    13     7     4 ar
    14     5     2 ar
    15     4     3 ar
    16     2     3 ar
    17     2    24 1
    18     1    16 1
    19     3    17 1
    20     4    18 1
    21     7    19 1
    22     9    20 1
    23    10    21 1
    24    15    22 1
    25    15    23 1
@<TRIPOS>SUBSTRUCTURE
     1 A6H         1 TEMP              0 ****  ****    0 ROOT
