@<TRIPOS>MOLECULE
molecule
   52    54     1     0     0
SMALL
bcc


@<TRIPOS>ATOM
      1 Cl1          0.0000     0.0000     0.0000 cl         1 A6K      -0.055400
      2 C18          1.7360     0.0000     0.0000 ca         1 A6K       0.046400
      3 C17          2.4280     0.0000     1.1980 ca         1 A6K      -0.103500
      4 C16          3.8100     0.0010     1.1970 ca         1 A6K      -0.123000
      5 C19          2.4280    -0.0040    -1.1980 ca         1 A6K      -0.103500
      6 C20          3.8100    -0.0040    -1.1970 ca         1 A6K      -0.123000
      7 C15          4.5010     0.0010    -0.0000 ca         1 A6K      -0.151300
      8 C14          6.0070     0.0010    -0.0000 c3         1 A6K      -0.054100
      9 C            6.5180    -1.4410    -0.0010 c3         1 A6K       0.128500
     10 N            6.1300    -2.0960    -1.2570 nz         1 A6K      -0.808600
     11 C1           8.0430    -1.4420     0.1250 c3         1 A6K      -0.188400
     12 C2           8.5350    -2.8620     0.2470 c          1 A6K       0.660100
     13 O            7.7440    -3.7810     0.2350 o          1 A6K      -0.649100
     14 N1           9.8550    -3.1090     0.3700 n          1 A6K      -0.467800
     15 C7          10.4690    -4.4380     0.4980 c3         1 A6K       0.104000
     16 C6          11.9920    -4.2280     0.6370 c3         1 A6K      -0.031400
     17 C4          12.0950    -2.7660     1.1490 c3         1 A6K      -0.074700
     18 C5          13.4330    -2.1400     0.7510 c3         1 A6K       0.148400
     19 O1          13.5430    -0.8400     1.3350 oh         1 A6K      -0.616800
     20 C3          10.9210    -2.0910     0.3930 c3         1 A6K       0.084000
     21 C8          12.5720    -5.1880     1.6430 ca         1 A6K      -0.101300
     22 C13         13.5690    -6.0670     1.2640 ca         1 A6K      -0.113500
     23 C12         14.1020    -6.9470     2.1870 ca         1 A6K      -0.113500
     24 C11         13.6380    -6.9470     3.4910 ca         1 A6K       0.038400
     25 Cl          14.3070    -8.0530     4.6500 cl         1 A6K      -0.084400
     26 C10         12.6410    -6.0660     3.8700 ca         1 A6K      -0.113500
     27 C9          12.1130    -5.1830     2.9480 ca         1 A6K      -0.113500
     28 H17          1.8870    -0.0000     2.1360 ha         1 A6K       0.165000
     29 H19          1.8860    -0.0080    -2.1370 ha         1 A6K       0.165000
     30 H16          4.3520     0.0020     2.1350 ha         1 A6K       0.133500
     31 H20          4.3520    -0.0060    -2.1350 ha         1 A6K       0.133500
     32 H141         6.3680     0.5120     0.8850 hc         1 A6K       0.086200
     33 H142         6.3680     0.5130    -0.8840 hc         1 A6K       0.086200
     34 H            6.0860    -1.9770     0.8350 hx         1 A6K       0.135700
     35 HN1          6.2770    -1.4670    -2.0210 hn         1 A6K       0.458467
     36 HN2          6.6850    -2.9190    -1.3890 hn         1 A6K       0.458467
     37 H11C         8.3330    -0.8820     1.0060 hc         1 A6K       0.099700
     38 H12C         8.4780    -0.9840    -0.7550 hc         1 A6K       0.099700
     39 H71C        10.2590    -5.0260    -0.3880 h1         1 A6K       0.070200
     40 H72C        10.0850    -4.9370     1.3790 h1         1 A6K       0.070200
     41 H31C        10.5880    -1.2090     0.9260 h1         1 A6K       0.059200
     42 H32C        11.2210    -1.8380    -0.6170 h1         1 A6K       0.059200
     43 H6          12.4800    -4.3300    -0.3250 hc         1 A6K       0.074700
     44 H4          11.9400    -2.7210     2.2200 hc         1 A6K       0.091700
     45 H51C        14.2440    -2.7650     1.1060 h1         1 A6K       0.036700
     46 H52C        13.4870    -2.0570    -0.3280 h1         1 A6K       0.036700
     47 H1          14.4450    -0.5650     1.3240 ho         1 A6K       0.419000
     48 H13         13.9320    -6.0670     0.2430 ha         1 A6K       0.136500
     49 H9          11.3320    -4.4930     3.2440 ha         1 A6K       0.136500
     50 H12         14.8830    -7.6370     1.8900 ha         1 A6K       0.154000
     51 H10         12.2790    -6.0640     4.8910 ha         1 A6K       0.154000
     52 HN3          5.1590    -2.3390    -1.2200 hn         1 A6K       0.458467
@<TRIPOS>BOND
     1     1     2 1
     2     2     3 ar
     3     2     5 ar
     4     3     4 ar
     5     4     7 ar
     6     5     6 ar
     7     6     7 ar
     8     7     8 1
     9     8     9 1
    10     9    10 1
    11     9    11 1
    12    11    12 1
    13    12    13 2
    14    12    14 1
    15    14    15 1
    16    14    20 1
    17    15    16 1
    18    16    17 1
    19    16    21 1
    20    17    18 1
    21    17    20 1
    22    18    19 1
    23    21    22 ar
    24    21    27 ar
    25    22    23 ar
    26    23    24 ar
    27    24    25 1
    28    24    26 ar
    29    26    27 ar
    30     3    28 1
    31     5    29 1
    32     4    30 1
    33     6    31 1
    34     8    32 1
    35     8    33 1
    36     9    34 1
    37    10    35 1
    38    10    36 1
    39    11    37 1
    40    11    38 1
    41    15    39 1
    42    15    40 1
    43    20    41 1
    44    20    42 1
    45    16    43 1
    46    17    44 1
    47    18    45 1
    48    18    46 1
    49    19    47 1
    50    22    48 1
    51    27    49 1
    52    23    50 1
    53    26    51 1
    54    52    10 1
@<TRIPOS>SUBSTRUCTURE
     1 A6K         1 TEMP              0 ****  ****    0 ROOT
