@<TRIPOS>MOLECULE
molecule
   52    54     1     0     0
SMALL
bcc


@<TRIPOS>ATOM
      1 Cl1          0.0000     0.0000     0.0000 cl         1 A6M      -0.055400
      2 C18          1.7360     0.0000     0.0000 ca         1 A6M       0.047400
      3 C17          2.4280     0.0000     1.1990 ca         1 A6M      -0.103500
      4 C16          3.8100     0.0010     1.1980 ca         1 A6M      -0.122500
      5 C19          2.4280    -0.0050    -1.1980 ca         1 A6M      -0.103500
      6 C20          3.8100    -0.0030    -1.1970 ca         1 A6M      -0.122500
      7 C15          4.5020     0.0010     0.0010 ca         1 A6M      -0.152300
      8 C14          6.0080     0.0030     0.0010 c3         1 A6M      -0.053100
      9 C            6.5190    -1.4400     0.0000 c3         1 A6M       0.128500
     10 N            6.1310    -2.0960    -1.2550 nz         1 A6M      -0.806600
     11 C1           8.0440    -1.4400     0.1260 c3         1 A6M      -0.189400
     12 C2           8.5370    -2.8600     0.2490 c          1 A6M       0.665100
     13 O            7.7460    -3.7790     0.2370 o          1 A6M      -0.650100
     14 N1           9.8560    -3.1060     0.3730 n          1 A6M      -0.472800
     15 C3          10.9510    -2.1080     0.4110 c3         1 A6M       0.089000
     16 C4          12.0730    -2.7810    -0.4180 c3         1 A6M      -0.077700
     17 C6          11.9450    -4.2700    -0.0260 c3         1 A6M      -0.034400
     18 C5          13.4450    -2.2310    -0.0200 c3         1 A6M       0.148400
     19 O1          13.5310    -0.8530    -0.3910 oh         1 A6M      -0.618800
     20 C7          10.5050    -4.4240     0.5030 c3         1 A6M       0.104000
     21 C8          12.1620    -5.1490    -1.2300 ca         1 A6M      -0.096300
     22 C13         13.1930    -6.0710    -1.2370 ca         1 A6M      -0.114000
     23 C12         13.3910    -6.8770    -2.3420 ca         1 A6M      -0.113500
     24 C11         12.5590    -6.7630    -3.4400 ca         1 A6M       0.037400
     25 Cl          12.8070    -7.7760    -4.8280 cl         1 A6M      -0.084400
     26 C10         11.5280    -5.8410    -3.4340 ca         1 A6M      -0.113500
     27 C9          11.3270    -5.0390    -2.3260 ca         1 A6M      -0.114000
     28 H17          1.8860    -0.0000     2.1370 ha         1 A6M       0.165000
     29 H19          1.8870    -0.0080    -2.1360 ha         1 A6M       0.165000
     30 H16          4.3520     0.0030     2.1360 ha         1 A6M       0.133000
     31 H20          4.3520    -0.0050    -2.1350 ha         1 A6M       0.133000
     32 H141         6.3680     0.5140     0.8850 hc         1 A6M       0.086200
     33 H142         6.3680     0.5140    -0.8840 hc         1 A6M       0.086200
     34 H            6.0880    -1.9760     0.8370 hx         1 A6M       0.135700
     35 HN1          6.2400    -1.4530    -2.0150 hn         1 A6M       0.458467
     36 HN2          6.7140    -2.8950    -1.4080 hn         1 A6M       0.458467
     37 H11C         8.4790    -0.9810    -0.7530 hc         1 A6M       0.100200
     38 H12C         8.3340    -0.8800     1.0070 hc         1 A6M       0.100200
     39 H71C        10.5240    -4.7240     1.5430 h1         1 A6M       0.074200
     40 H72C         9.9710    -5.1570    -0.0900 h1         1 A6M       0.074200
     41 H31C        11.2780    -1.9410     1.4300 h1         1 A6M       0.065200
     42 H32C        10.6370    -1.1820    -0.0540 h1         1 A6M       0.065200
     43 H6          12.6560    -4.5120     0.7550 hc         1 A6M       0.079700
     44 H4          11.8940    -2.6490    -1.4780 hc         1 A6M       0.083700
     45 H51C        14.2200    -2.7920    -0.5280 h1         1 A6M       0.037200
     46 H52C        13.5740    -2.3250     1.0520 h1         1 A6M       0.037200
     47 H1          14.4330    -0.5770    -0.3670 ho         1 A6M       0.420000
     48 H13         13.8450    -6.1610    -0.3760 ha         1 A6M       0.131500
     49 H9          10.5190    -4.3160    -2.3200 ha         1 A6M       0.131500
     50 H12         14.1990    -7.5990    -2.3470 ha         1 A6M       0.151500
     51 H10         10.8740    -5.7520    -4.2930 ha         1 A6M       0.151500
     52 HN3          5.1770    -2.3920    -1.1950 hn         1 A6M       0.458467
@<TRIPOS>BOND
     1     1     2 1
     2     2     3 ar
     3     2     5 ar
     4     3     4 ar
     5     4     7 ar
     6     5     6 ar
     7     6     7 ar
     8     7     8 1
     9     8     9 1
    10     9    10 1
    11     9    11 1
    12    11    12 1
    13    12    13 2
    14    12    14 1
    15    14    20 1
    16    14    15 1
    17    20    17 1
    18    17    16 1
    19    17    21 1
    20    16    18 1
    21    16    15 1
    22    18    19 1
    23    21    22 ar
    24    21    27 ar
    25    22    23 ar
    26    23    24 ar
    27    24    25 1
    28    24    26 ar
    29    26    27 ar
    30     3    28 1
    31     5    29 1
    32     4    30 1
    33     6    31 1
    34     8    32 1
    35     8    33 1
    36     9    34 1
    37    10    35 1
    38    10    36 1
    39    11    37 1
    40    11    38 1
    41    20    39 1
    42    20    40 1
    43    15    41 1
    44    15    42 1
    45    17    43 1
    46    16    44 1
    47    18    45 1
    48    18    46 1
    49    19    47 1
    50    22    48 1
    51    27    49 1
    52    23    50 1
    53    26    51 1
    54    52    10 1
@<TRIPOS>SUBSTRUCTURE
     1 A6M         1 TEMP              0 ****  ****    0 ROOT
