@<TRIPOS>MOLECULE
A6N
   40    42     1     0     0
SMALL
bcc


@<TRIPOS>ATOM
      1 C1           0.0000     0.0000     0.0000 c3         1 A6N       0.213100
      2 O2           1.4290     0.0000     0.0000 os         1 A6N      -0.289900
      3 C4           2.0460     0.0000     1.2110 ca         1 A6N       0.228100
      4 C5           3.4300    -0.0000     1.2860 ca         1 A6N      -0.158500
      5 C6           4.0550    -0.0010     2.5180 ca         1 A6N       0.003000
      6 C7           3.3010     0.0000     3.6770 ca         1 A6N       0.003500
      7 C8           1.9200     0.0000     3.6050 ca         1 A6N       0.003000
      8 C9           1.2910     0.0060     2.3750 ca         1 A6N      -0.158500
      9 C16         -0.5020    -0.0000    -1.4210 cc         1 A6N       0.230600
     10 C17          0.2520    -0.0000    -2.5460 cd         1 A6N      -0.449600
     11 N18         -0.6250    -0.0010    -3.5860 na         1 A6N       0.759300
     12 N19         -1.8200    -0.0010    -3.1040 nd         1 A6N      -0.371800
     13 N20         -1.7790    -0.0050    -1.8180 nc         1 A6N      -0.300000
     14 C21         -0.2890    -0.0010    -4.9470 ca         1 A6N      -0.211200
     15 C22         -1.2880    -0.0010    -5.9120 ca         1 A6N      -0.076500
     16 C23         -0.9520    -0.0010    -7.2520 ca         1 A6N      -0.085500
     17 C24          0.3770    -0.0010    -7.6330 ca         1 A6N      -0.069000
     18 C25          1.3740    -0.0010    -6.6750 ca         1 A6N      -0.085500
     19 C26          1.0450     0.0050    -5.3330 ca         1 A6N      -0.076500
     20 S1           4.1220     0.0000     5.2900 s6         1 A6N      -0.071000
     21 O3           4.8890     0.0240     6.7610 oh         1 A6N      -0.565700
     22 O4           4.9830    -1.4050     5.4720 oh         1 A6N      -0.565700
     23 N5           2.9420     0.1130     6.5340 nz         1 A6N      -0.016500
     24 H1          -0.3610     0.8840     0.5110 h1         1 A6N       0.015700
     25 H11         -0.3610    -0.8840     0.5110 h1         1 A6N       0.015700
     26 H5           4.0220    -0.0010     0.3780 ha         1 A6N       0.143000
     27 H6           5.1370    -0.0010     2.5760 ha         1 A6N       0.096000
     28 H8           1.3300     0.0200     4.5140 ha         1 A6N       0.096000
     29 H9           0.2090     0.0110     2.3190 ha         1 A6N       0.143000
     30 H17          1.3340    -0.0190    -2.5870 h4         1 A6N       0.171000
     31 H22         -2.3290    -0.0010    -5.6130 ha         1 A6N       0.124000
     32 H23         -1.7310    -0.0010    -8.0050 ha         1 A6N       0.115500
     33 H24          0.6390    -0.0010    -8.6840 ha         1 A6N       0.113000
     34 H25          2.4150     0.0000    -6.9770 ha         1 A6N       0.115500
     35 H26          1.8270     0.0100    -4.5830 ha         1 A6N       0.124000
     36 H2           4.6530    -0.7460     7.2520 ho         1 A6N       0.453500
     37 H3           5.9030    -1.2050     5.5290 ho         1 A6N       0.453500
     38 HN5          2.3490    -0.6920     6.5050 hn         1 A6N       0.310133
     39 HN51         3.3990     0.1590     7.4240 hn         1 A6N       0.310133
     40 H53          2.3930     0.9380     6.3980 hn         1 A6N       0.310133
@<TRIPOS>BOND
     1     1     2 1   
     2     1     9 1   
     3     1    24 1   
     4     1    25 1   
     5     2     3 1   
     6     3     4 ar  
     7     3     8 ar  
     8     4     5 ar  
     9     4    26 1   
    10     5     6 ar  
    11     5    27 1   
    12     6     7 ar  
    13     6    20 1   
    14     7     8 ar  
    15     7    28 1   
    16     8    29 1   
    17     9    10 2   
    18     9    13 1   
    19    10    11 1   
    20    10    30 1   
    21    11    12 1   
    22    11    14 1   
    23    12    13 2   
    24    14    15 ar  
    25    14    19 ar  
    26    15    16 ar  
    27    15    31 1   
    28    16    17 ar  
    29    16    32 1   
    30    17    18 ar  
    31    17    33 1   
    32    18    19 ar  
    33    18    34 1   
    34    19    35 1   
    35    20    21 1   
    36    20    22 1   
    37    20    23 1   
    38    21    36 1   
    39    22    37 1   
    40    23    38 1   
    41    23    39 1   
    42    23    40 1   
@<TRIPOS>SUBSTRUCTURE
     1 A6N         1 TEMP              0 ****  ****    0 ROOT
