@<TRIPOS>MOLECULE
molecule
   40    42     1     0     0
SMALL
bcc


@<TRIPOS>ATOM
      1 C1           0.0000     0.0000     0.0000 c3         1 A6N       0.129100
      2 O2           1.4290     0.0000     0.0000 os         1 A6N      -0.310900
      3 C4           2.0460     0.0000     1.2110 ca         1 A6N       0.223100
      4 C5           3.4300    -0.0000     1.2860 ca         1 A6N      -0.180500
      5 C6           4.0550    -0.0010     2.5180 ca         1 A6N      -0.022500
      6 C7           3.3010     0.0000     3.6770 ca         1 A6N      -0.212500
      7 C8           1.9200     0.0000     3.6050 ca         1 A6N      -0.022500
      8 C9           1.2910     0.0060     2.3750 ca         1 A6N      -0.180500
      9 C16         -0.5020    -0.0000    -1.4210 cc         1 A6N       0.248600
     10 C17          0.2520    -0.0000    -2.5460 cd         1 A6N      -0.253600
     11 N18         -0.6250    -0.0010    -3.5860 na         1 A6N       0.224300
     12 N19         -1.8200    -0.0010    -3.1040 nd         1 A6N      -0.176800
     13 N20         -1.7790    -0.0050    -1.8180 nc         1 A6N      -0.349000
     14 C21         -0.2890    -0.0010    -4.9470 ca         1 A6N      -0.013200
     15 C22         -1.2880    -0.0010    -5.9120 ca         1 A6N      -0.120000
     16 C23         -0.9520    -0.0010    -7.2520 ca         1 A6N      -0.110000
     17 C24          0.3770    -0.0010    -7.6330 ca         1 A6N      -0.113000
     18 C25          1.3740    -0.0010    -6.6750 ca         1 A6N      -0.110000
     19 C26          1.0450     0.0050    -5.3330 ca         1 A6N      -0.120000
     20 S1           4.1220     0.0000     5.2900 s6         1 A6N       0.470000
     21 O3           4.8890     0.0240     6.7610 oh         1 A6N      -0.652200
     22 O4           4.9830    -1.4050     5.4720 oh         1 A6N      -0.652200
     23 N5           2.9420     0.1130     6.5340 nz         1 A6N      -0.678500
     24 H1          -0.3610     0.8840     0.5110 h1         1 A6N       0.060700
     25 H11         -0.3610    -0.8840     0.5110 h1         1 A6N       0.060700
     26 H5           4.0220    -0.0010     0.3780 ha         1 A6N       0.168000
     27 H6           5.1370    -0.0010     2.5760 ha         1 A6N       0.121500
     28 H8           1.3300     0.0200     4.5140 ha         1 A6N       0.121500
     29 H9           0.2090     0.0110     2.3190 ha         1 A6N       0.168000
     30 H17          1.3340    -0.0190    -2.5870 h4         1 A6N       0.194000
     31 H22         -2.3290    -0.0010    -5.6130 ha         1 A6N       0.150000
     32 H23         -1.7310    -0.0010    -8.0050 ha         1 A6N       0.147000
     33 H24          0.6390    -0.0010    -8.6840 ha         1 A6N       0.145000
     34 H25          2.4150     0.0000    -6.9770 ha         1 A6N       0.147000
     35 H26          1.8270     0.0100    -4.5830 ha         1 A6N       0.150000
     36 H2           4.6530    -0.7460     7.2520 ho         1 A6N       0.469500
     37 H3           5.9030    -1.2050     5.5290 ho         1 A6N       0.469500
     38 HN5          2.3490    -0.6920     6.5050 hn         1 A6N       0.469800
     39 HN51         3.3990     0.1590     7.4240 hn         1 A6N       0.469800
     40 H53          2.3930     0.9380     6.3980 hn         1 A6N       0.469800
@<TRIPOS>BOND
     1     1     2 1
     2     1     9 1
     3     2     3 1
     4     3     4 ar
     5     3     8 ar
     6     4     5 ar
     7     5     6 ar
     8     6     7 ar
     9     6    20 1
    10     7     8 ar
    11     9    10 2
    12     9    13 1
    13    10    11 1
    14    11    12 1
    15    11    14 1
    16    12    13 2
    17    14    15 ar
    18    14    19 ar
    19    15    16 ar
    20    16    17 ar
    21    17    18 ar
    22    18    19 ar
    23    20    21 1
    24    20    22 1
    25    20    23 1
    26     1    24 1
    27     1    25 1
    28     4    26 1
    29     5    27 1
    30     7    28 1
    31     8    29 1
    32    10    30 1
    33    15    31 1
    34    16    32 1
    35    17    33 1
    36    18    34 1
    37    19    35 1
    38    21    36 1
    39    22    37 1
    40    23    38 1
    41    23    39 1
    42    40    23 1
@<TRIPOS>SUBSTRUCTURE
     1 A6N         1 TEMP              0 ****  ****    0 ROOT
