@<TRIPOS>MOLECULE
A6P
   27    27     1     0     0
SMALL
bcc


@<TRIPOS>ATOM
      1 C1          0.3070    0.0830   -0.3970 c3        1 A6P      0.325900
      2 C2          1.8070    0.0290   -0.0560 c3        1 A6P      0.088100
      3 C3          2.0370    0.1300    1.4470 c3        1 A6P      0.028100
      4 C4          1.2460    1.3170    2.1210 c3        1 A6P      0.360800
      5 C5         -0.2260    1.3120    1.6050 c3        1 A6P      0.040100
      6 C6         -0.9240    2.6400    1.9460 c3        1 A6P      0.200400
      7 O1         -0.3600   -1.0970   -0.0090 oh        1 A6P     -0.654800
      8 O2          2.3760   -1.1510   -0.6070 oh        1 A6P     -0.632800
      9 O3          1.6580   -1.1000    2.0520 oh        1 A6P     -0.674800
     10 O4          1.2940    1.1710    3.4330 o         1 A6P     -0.877500
     11 O5         -0.3460    1.1820    0.1730 os        1 A6P     -0.452600
     12 O6         -2.1540    2.4100    2.5610 os        1 A6P     -0.591200
     13 P          -2.3480    3.0130    4.0910 p5        1 A6P      1.438800
     14 O1P        -1.3880    1.9670    4.8720 oh        1 A6P     -0.812400
     15 O2P        -1.7160    4.3540    4.1090 o         1 A6P     -0.858500
     16 O3P        -3.7540    2.7840    4.4960 o         1 A6P     -0.858500
     17 H1          0.1410    0.1680   -1.5090 h2        1 A6P      0.057700
     18 H2          2.3340    0.8760   -0.5720 h1        1 A6P      0.058700
     19 HA         -0.2280   -1.2060    0.9440 ho        1 A6P      0.429000
     20 H3          3.1360    0.2700    1.6390 h1        1 A6P      0.015700
     21 HB          1.9940   -1.8840   -0.1060 ho        1 A6P      0.412000
     22 H4          1.7390    2.2610    1.7230 h1        1 A6P     -0.069300
     23 HC          1.3130   -0.8520    2.9330 ho        1 A6P      0.446000
     24 H5         -0.7790    0.4600    2.0850 h1        1 A6P      0.043700
     25 HD         -0.5380    1.7960    4.4610 ho        1 A6P      0.474000
     26 H6C1       -0.2590    3.2470    2.6240 h1        1 A6P      0.032200
     27 H6C2       -1.1030    3.2120    0.9910 h1        1 A6P      0.032200
@<TRIPOS>BOND
     1    1    2 1   
     2    1    7 1   
     3    1   11 1   
     4    1   17 1   
     5    2    3 1   
     6    2    8 1   
     7    2   18 1   
     8    3    4 1   
     9    3    9 1   
    10    3   20 1   
    11    4    5 1   
    12    4   10 1   
    13    4   22 1   
    14    5    6 1   
    15    5   11 1   
    16    5   24 1   
    17    6   12 1   
    18    6   26 1   
    19    6   27 1   
    20    7   19 1   
    21    8   21 1   
    22    9   23 1   
    23   12   13 1   
    24   13   14 1   
    25   13   15 1   
    26   13   16 1   
    27   14   25 1   
@<TRIPOS>SUBSTRUCTURE
     1 A6P         1 TEMP              0 ****  ****    0 ROOT
