@<TRIPOS>MOLECULE
molecule
   63    67     1     0     0
SMALL
bcc


@<TRIPOS>ATOM
      1 C1           0.0000     0.0000     0.0000 ca         1 A6S      -0.044000
      2 C2           1.3670     0.0000     0.0000 ca         1 A6S      -0.192000
      3 C3           2.0720     0.0000     1.1980 ca         1 A6S       0.152900
      4 O1          -1.3540     2.8340    11.4550 os         1 A6S      -0.325900
      5 C11          0.2810    -0.9200     5.3410 ca         1 A6S      -0.269300
      6 C12          0.5520    -0.8920     6.6950 ca         1 A6S       0.441200
      7 C13         -0.9070     0.8720     7.0210 cp         1 A6S       0.501800
      8 C14         -1.2220     0.9130     5.6670 ca         1 A6S      -0.255300
      9 C15         -1.5410     1.8360     7.9540 cp         1 A6S      -0.118500
     10 C16         -1.1420     1.8830     9.2880 ca         1 A6S      -0.114000
     11 C17         -1.7390     2.7860    10.1530 ca         1 A6S       0.134100
     12 C18         -2.7290     3.6410     9.6900 ca         1 A6S      -0.210000
     13 C19         -3.1250     3.5950     8.3660 ca         1 A6S      -0.095000
     14 C20         -2.5320     2.7030     7.4960 ca         1 A6S      -0.153000
     15 C21         -2.0100     3.7890    12.2910 c3         1 A6S       0.128700
     16 C22         -4.6360    -1.4030    -0.8210 c3         1 A6S       0.158800
     17 C23         -4.8400    -2.8370    -1.3170 c3         1 A6S      -0.070700
     18 C24         -5.2550    -3.7270    -0.1440 c3         1 A6S      -0.077400
     19 C25         -5.4590    -5.1600    -0.6390 c3         1 A6S      -0.078400
     20 C26         -6.5540    -5.1800    -1.7090 c3         1 A6S      -0.080400
     21 C27         -6.1380    -4.2890    -2.8810 c3         1 A6S      -0.078400
     22 C28         -5.9340    -2.8560    -2.3860 c3         1 A6S      -0.077400
     23 C10         -0.6220    -0.0020     4.8070 ca         1 A6S       0.046800
     24 C4           1.4050    -0.0010     2.4060 ca         1 A6S      -0.187000
     25 C5          -0.6940    -0.0010     1.2110 ca         1 A6S      -0.097800
     26 C6           0.0140    -0.0010     2.4270 ca         1 A6S      -0.010200
     27 C7          -2.1840    -0.0020     2.9090 cc         1 A6S      -0.093100
     28 C8          -2.1160    -0.0010     1.5690 cd         1 A6S      -0.136400
     29 C9          -3.2800    -0.0010     0.6130 c3         1 A6S       0.234000
     30 F1           3.4230     0.0000     1.1790 f          1 A6S      -0.140900
     31 N1          -0.9190    -0.0010     3.4420 na         1 A6S       0.002500
     32 N2          -3.5060    -1.3640     0.1160 n7         1 A6S      -0.817200
     33 N3          -0.0360    -0.0160     7.4860 nb         1 A6S      -0.691000
     34 H1          -0.5430    -0.0000    -0.9370 ha         1 A6S       0.145000
     35 H2           1.9040     0.0000    -0.9400 ha         1 A6S       0.145000
     36 H3           0.7680    -1.6450     4.7010 ha         1 A6S       0.155000
     37 H4           1.2550    -1.6010     7.1130 h4         1 A6S       0.031100
     38 H5          -1.9300     1.6410     5.2890 ha         1 A6S       0.153000
     39 H6          -0.3070     1.2810     9.6250 ha         1 A6S       0.169000
     40 H7          -3.1980     4.3430    10.3700 ha         1 A6S       0.136000
     41 H8          -3.8970     4.2660     8.0100 ha         1 A6S       0.133000
     42 H9          -2.8440     2.6690     6.4590 ha         1 A6S       0.131000
     43 H10         -1.6100     3.7240    13.2960 h1         1 A6S       0.041700
     44 H11         -1.8440     4.7860    11.9000 h1         1 A6S       0.041700
     45 H12         -3.0730     3.5820    12.3110 h1         1 A6S       0.041700
     46 H13         -5.5340    -1.0640    -0.3180 h1         1 A6S       0.031200
     47 H14         -4.4280    -0.7560    -1.6640 h1         1 A6S       0.031200
     48 H15         -3.9160    -3.2110    -1.7420 hc         1 A6S       0.068700
     49 H16         -6.1820    -3.3570     0.2780 hc         1 A6S       0.040450
     50 H17         -4.4780    -3.7140     0.6100 hc         1 A6S       0.040450
     51 H18         -4.5330    -5.5280    -1.0650 hc         1 A6S       0.041700
     52 H19         -5.7560    -5.7890     0.1910 hc         1 A6S       0.041700
     53 H20         -7.4780    -4.8080    -1.2840 hc         1 A6S       0.040200
     54 H21         -6.6940    -6.1950    -2.0610 hc         1 A6S       0.040200
     55 H22         -5.2110    -4.6590    -3.3030 hc         1 A6S       0.041700
     56 H23         -6.9150    -4.3020    -3.6360 hc         1 A6S       0.041700
     57 H24         -5.6380    -2.2270    -3.2160 hc         1 A6S       0.040450
     58 H25         -6.8600    -2.4880    -1.9600 hc         1 A6S       0.040450
     59 H26          1.9620    -0.0010     3.3350 ha         1 A6S       0.146000
     60 H27         -3.1020    -0.0030     3.4850 h4         1 A6S       0.171000
     61 H28         -3.0630     0.6560    -0.2200 h1         1 A6S       0.036700
     62 H29         -4.1680     0.3480     1.1260 h1         1 A6S       0.036700
     63 H30         -3.6910    -1.9750     0.8870 hn         1 A6S       0.357800
@<TRIPOS>BOND
     1    18    19 1
     2    18    17 1
     3    32    29 1
     4    32    16 1
     5    19    20 1
     6     1     2 ar
     7     1    25 ar
     8     2     3 ar
     9    29    28 1
    10    16    17 1
    11    17    22 1
    12    25    28 1
    13    25    26 ar
    14    20    21 1
    15     3    30 1
    16     3    24 ar
    17    28    27 2
    18    22    21 1
    19    26    24 ar
    20    26    31 1
    21    27    31 1
    22    31    23 1
    23    23     5 ar
    24    23     8 ar
    25     5     6 ar
    26     8     7 ar
    27     6    33 ar
    28     7    33 ar
    29     7     9 1
    30    10     9 ar
    31    10    11 ar
    32     4    11 1
    33     4    15 1
    34     9    14 ar
    35    11    12 ar
    36    14    13 ar
    37    12    13 ar
    38     1    34 1
    39     2    35 1
    40     5    36 1
    41     6    37 1
    42     8    38 1
    43    10    39 1
    44    12    40 1
    45    13    41 1
    46    14    42 1
    47    15    43 1
    48    15    44 1
    49    15    45 1
    50    16    46 1
    51    16    47 1
    52    17    48 1
    53    18    49 1
    54    18    50 1
    55    19    51 1
    56    19    52 1
    57    20    53 1
    58    20    54 1
    59    21    55 1
    60    21    56 1
    61    22    57 1
    62    22    58 1
    63    24    59 1
    64    27    60 1
    65    29    61 1
    66    29    62 1
    67    32    63 1
@<TRIPOS>SUBSTRUCTURE
     1 A6S         1 TEMP              0 ****  ****    0 ROOT
