@<TRIPOS>MOLECULE
molecule
   75    80     1     0     0
SMALL
bcc


@<TRIPOS>ATOM
      1 C            0.0000     0.0000     0.0000 c3         1 A6T       0.097800
      2 ClA         -1.0080    -5.2720    -4.0770 cl         1 A6T      -0.085400
      3 C36         -0.8850    -3.5450    -3.9460 ca         1 A6T       0.030400
      4 C33          0.0990    -2.9800    -3.1520 ca         1 A6T       0.029400
      5 ClR3         1.2100    -3.9960    -2.2890 cl         1 A6T      -0.086400
      6 C38         -1.7660    -2.7340    -4.6380 ca         1 A6T      -0.113000
      7 C37         -1.6680    -1.3590    -4.5330 ca         1 A6T      -0.120000
      8 C34         -0.6880    -0.7940    -3.7370 ca         1 A6T      -0.103000
      9 C32          0.1960    -1.6040    -3.0490 ca         1 A6T      -0.097300
     10 C29          1.2660    -0.9860    -2.1850 c3         1 A6T       0.066300
     11 N26          1.8070     0.2000    -2.8520 n          1 A6T      -0.450800
     12 C28          2.0000     0.2010    -4.3040 cx         1 A6T       0.028700
     13 C31          1.4100     1.3690    -5.0960 cx         1 A6T      -0.150900
     14 C30          2.9230     1.2700    -4.8940 cx         1 A6T      -0.150900
     15 C22          2.1270     1.2930    -2.1290 c          1 A6T       0.681300
     16 O25          2.5220     2.2980    -2.6890 o          1 A6T      -0.605100
     17 C20          1.9990     1.2680    -0.6710 ce         1 A6T      -0.189400
     18 C23          1.5370     0.0000     0.0000 c3         1 A6T       0.180700
     19 N27          1.9930     0.0000     1.4000 n7         1 A6T      -0.795200
     20 C24          1.5300     1.2090     2.0900 c3         1 A6T       0.163500
     21 C21          2.2310     2.4360     1.5230 c3         1 A6T      -0.023200
     22 NB          -0.4520     1.2520     0.6280 n7         1 A6T      -0.802200
     23 CA           0.0160     1.3390     2.0160 c3         1 A6T       0.120800
     24 C19          2.2950     2.3720     0.0240 cf         1 A6T       0.063600
     25 C18          2.7000     3.5800    -0.7140 ca         1 A6T      -0.066800
     26 C16          1.8990     4.7250    -0.6840 ca         1 A6T      -0.076000
     27 C14          2.2870     5.8520    -1.3770 ca         1 A6T      -0.134500
     28 C17          3.8930     3.5890    -1.4460 ca         1 A6T      -0.076000
     29 C15          4.2660     4.7240    -2.1340 ca         1 A6T      -0.134500
     30 C13          3.4650     5.8520    -2.1020 ca         1 A6T      -0.074300
     31 C12          3.8810     7.0880    -2.8570 c3         1 A6T      -0.033100
     32 C10          4.7360     7.9750    -1.9520 c3         1 A6T      -0.076400
     33 C8           5.1580     9.2300    -2.7190 c3         1 A6T       0.141400
     34 O5           5.9580    10.0590    -1.8720 os         1 A6T      -0.333900
     35 C3           6.4190    11.2230    -2.4040 ca         1 A6T       0.109100
     36 C6           5.6640    12.3840    -2.2950 ca         1 A6T       0.109900
     37 F1           4.4720    12.3580    -1.6600 f          1 A6T      -0.122900
     38 C2           7.6440    11.2530    -3.0520 ca         1 A6T      -0.018600
     39 Cl11         8.5930     9.8050    -3.1850 cl         1 A6T      -0.059400
     40 C4           8.1110    12.4400    -3.5920 ca         1 A6T       0.136900
     41 F2           9.3060    12.4720    -4.2230 f          1 A6T      -0.122900
     42 C7           7.3550    13.5940    -3.4870 ca         1 A6T      -0.145000
     43 C9           6.1340    13.5670    -2.8360 ca         1 A6T      -0.135000
     44 H           -0.3650    -0.8460     0.5690 h1         1 A6T       0.049200
     45 HA          -0.3650    -0.0510    -1.0190 h1         1 A6T       0.049200
     46 H37         -2.3590    -0.7240    -5.0740 ha         1 A6T       0.144000
     47 H34         -0.6120     0.2830    -3.6560 ha         1 A6T       0.158000
     48 H29          0.8400    -0.7020    -1.2310 h1         1 A6T       0.102200
     49 H29A         2.0610    -1.7050    -2.0260 h1         1 A6T       0.102200
     50 H28          2.0090    -0.7460    -4.8310 h1         1 A6T       0.098700
     51 H31          1.0540     1.1280    -6.0900 hc         1 A6T       0.088950
     52 H31A         0.9080     2.1280    -4.5070 hc         1 A6T       0.088950
     53 H30          3.3470     1.9670    -4.1810 hc         1 A6T       0.088950
     54 H30A         3.4930     0.9680    -5.7640 hc         1 A6T       0.088950
     55 H23          1.9180    -0.8680    -0.5240 h1         1 A6T       0.105700
     56 HN27         1.6350    -0.8090     1.8680 hn         1 A6T       0.355800
     57 H24          1.8060     1.1220     3.1340 h1         1 A6T       0.062700
     58 H21          3.2380     2.4840     1.9190 hc         1 A6T       0.067200
     59 H21A         1.6840     3.3230     1.8170 hc         1 A6T       0.067200
     60 HNB         -1.4520     1.2930     0.6100 hn         1 A6T       0.358800
     61 HAA         -0.2780     2.2950     2.4310 h1         1 A6T       0.037200
     62 HAB         -0.4360     0.5410     2.5930 h1         1 A6T       0.037200
     63 H16          0.9760     4.7270    -0.1160 ha         1 A6T       0.130500
     64 H14          1.6660     6.7400    -1.3550 ha         1 A6T       0.127000
     65 H17          4.5210     2.7060    -1.4710 ha         1 A6T       0.130500
     66 H15          5.1880     4.7320    -2.7020 ha         1 A6T       0.127000
     67 H12          2.9990     7.6340    -3.1700 hc         1 A6T       0.048700
     68 H12A         4.4560     6.8010    -3.7300 hc         1 A6T       0.048700
     69 H10          4.1620     8.2610    -1.0790 hc         1 A6T       0.060700
     70 H10A         5.6180     7.4290    -1.6400 hc         1 A6T       0.060700
     71 H8           5.7330     8.9440    -3.5910 h1         1 A6T       0.034200
     72 H8A          4.2760     9.7770    -3.0300 h1         1 A6T       0.034200
     73 H7           7.7210    14.5220    -3.9100 ha         1 A6T       0.159000
     74 H9           5.5450    14.4720    -2.7530 ha         1 A6T       0.158000
     75 H38         -2.5340    -3.1750    -5.2620 ha         1 A6T       0.151000
@<TRIPOS>BOND
     1    18     1 1
     2    22     1 1
     3     1    44 1
     4     1    45 1
     5     2     3 1
     6     4     3 ar
     7     3     6 ar
     8     5     4 1
     9     4     9 ar
    10     6     7 ar
    11     6    75 1
    12     8     7 ar
    13     7    46 1
    14     9     8 ar
    15     8    47 1
    16    10     9 1
    17    10    11 1
    18    10    48 1
    19    10    49 1
    20    12    11 1
    21    11    15 1
    22    12    13 1
    23    12    14 1
    24    12    50 1
    25    13    14 1
    26    13    51 1
    27    13    52 1
    28    14    53 1
    29    14    54 1
    30    15    17 1
    31    15    16 2
    32    24    17 2
    33    17    18 1
    34    19    18 1
    35    18    55 1
    36    20    19 1
    37    19    56 1
    38    21    20 1
    39    20    23 1
    40    20    57 1
    41    24    21 1
    42    21    58 1
    43    21    59 1
    44    23    22 1
    45    22    60 1
    46    23    61 1
    47    23    62 1
    48    25    24 1
    49    28    25 ar
    50    26    25 ar
    51    27    26 ar
    52    26    63 1
    53    30    27 ar
    54    27    64 1
    55    29    28 ar
    56    28    65 1
    57    30    29 ar
    58    29    66 1
    59    31    30 1
    60    32    31 1
    61    31    67 1
    62    31    68 1
    63    32    33 1
    64    32    69 1
    65    32    70 1
    66    34    33 1
    67    33    71 1
    68    33    72 1
    69    34    35 1
    70    38    35 ar
    71    35    36 ar
    72    36    43 ar
    73    36    37 1
    74    39    38 1
    75    38    40 ar
    76    41    40 1
    77    40    42 ar
    78    42    43 ar
    79    42    73 1
    80    43    74 1
@<TRIPOS>SUBSTRUCTURE
     1 A6T         1 TEMP              0 ****  ****    0 ROOT
