@<TRIPOS>MOLECULE
molecule
   52    53     1     0     0
SMALL
bcc


@<TRIPOS>ATOM
      1 O1           0.0000     0.0000     0.0000 oh         1 A6V      -0.605800
      2 C9           1.4290     0.0000     0.0000 c3         1 A6V       0.213400
      3 C10          1.9390     0.0000     1.4420 c3         1 A6V      -0.112400
      4 C11          1.5330    -1.3070     2.1270 c3         1 A6V       0.088800
      5 N            2.0230    -1.3070     3.5120 nz         1 A6V      -0.810600
      6 C8           1.9310     1.2300    -0.7110 ca         1 A6V      -0.108300
      7 C7           1.2960     2.4440    -0.5240 ca         1 A6V      -0.143000
      8 C6           1.7540     3.5750    -1.1730 ca         1 A6V      -0.082000
      9 C5           2.8490     3.4940    -2.0130 ca         1 A6V      -0.202000
     10 C12          3.0290     1.1450    -1.5440 ca         1 A6V      -0.158000
     11 C4           3.4870     2.2770    -2.2030 ca         1 A6V       0.156100
     12 O            4.5680     2.1960    -3.0230 os         1 A6V      -0.318900
     13 C3           4.9850     3.4010    -3.6680 c3         1 A6V       0.168600
     14 C2           6.1870     3.1200    -4.5310 c2         1 A6V      -0.127400
     15 C13          6.0840     2.0150    -5.5430 c3         1 A6V      -0.013800
     16 C14          6.2230     0.6660    -4.8350 c3         1 A6V      -0.079100
     17 C15          4.7210     2.0870    -6.2350 c3         1 A6V      -0.079100
     18 C16          7.1920     2.1530    -6.5880 c3         1 A6V      -0.070400
     19 C17          8.5280     2.3410    -5.8590 c3         1 A6V      -0.082400
     20 C18          8.5070     3.6980    -5.1530 c3         1 A6V      -0.037200
     21 C1           7.2420     3.8490    -4.3590 c2         1 A6V      -0.091400
     22 C            7.1960     4.9200    -3.3000 c3         1 A6V      -0.066900
     23 H1          -0.3140    -0.6280    -0.6290 ho         1 A6V       0.425000
     24 H2           1.7900    -0.8850    -0.5110 h1         1 A6V       0.047700
     25 H3           3.0180     0.0880     1.4430 hc         1 A6V       0.078700
     26 H4           1.5070     0.8370     1.9780 hc         1 A6V       0.078700
     27 H5           0.4540    -1.3960     2.1260 hx         1 A6V       0.114700
     28 H6           1.9650    -2.1440     1.5920 hx         1 A6V       0.114700
     29 H7           1.6070    -0.5460     4.0130 hn         1 A6V       0.456800
     30 H8           3.0180    -1.2030     3.5140 hn         1 A6V       0.456800
     31 H10          0.4390     2.5100     0.1360 ha         1 A6V       0.140000
     32 H11          1.2560     4.5250    -1.0240 ha         1 A6V       0.144000
     33 H12          3.1750     4.3680    -2.5630 ha         1 A6V       0.150000
     34 H13          3.5090     0.1890    -1.7120 ha         1 A6V       0.139000
     35 H14          4.1780     3.7790    -4.2850 h1         1 A6V       0.047700
     36 H15          5.2430     4.1410    -2.9200 h1         1 A6V       0.047700
     37 H16          5.2390     0.2610    -4.6340 hc         1 A6V       0.036700
     38 H17          6.7730    -0.0190    -5.4690 hc         1 A6V       0.036700
     39 H18          6.7560     0.8010    -3.9020 hc         1 A6V       0.036700
     40 H19          3.9540     1.7260    -5.5600 hc         1 A6V       0.036700
     41 H20          4.5080     3.1130    -6.5090 hc         1 A6V       0.036700
     42 H21          4.7360     1.4710    -7.1260 hc         1 A6V       0.036700
     43 H22          7.2330     1.2570    -7.1960 hc         1 A6V       0.048700
     44 H23          6.9960     3.0160    -7.2140 hc         1 A6V       0.048700
     45 H24          8.6560     1.5520    -5.1270 hc         1 A6V       0.048200
     46 H25          9.3400     2.3160    -6.5750 hc         1 A6V       0.048200
     47 H26          8.5610     4.4870    -5.8930 hc         1 A6V       0.056200
     48 H27          9.3580     3.7670    -4.4850 hc         1 A6V       0.056200
     49 H28          8.1310     5.4690    -3.3000 hc         1 A6V       0.044367
     50 H29          6.3790     5.6000    -3.5090 hc         1 A6V       0.044367
     51 H30          7.0460     4.4620    -2.3300 hc         1 A6V       0.044367
     52 HN3          1.7760    -2.1700     3.9530 hn         1 A6V       0.456800
@<TRIPOS>BOND
     1    19    18 1
     2    19    20 1
     3    18    15 1
     4    16    15 1
     5    15    17 1
     6    15    14 1
     7     5     4 1
     8    20    21 1
     9     4     3 1
    10    14    21 2
    11    14    13 1
    12     3     2 1
    13    21    22 1
    14    12    13 1
    15    12    11 1
    16     1     2 1
    17    10    11 ar
    18    10     6 ar
    19     2     6 1
    20    11     9 ar
    21     6     7 ar
    22     9     8 ar
    23     7     8 ar
    24     1    23 1
    25     2    24 1
    26     3    25 1
    27     3    26 1
    28     4    27 1
    29     4    28 1
    30     5    29 1
    31     5    30 1
    32     7    31 1
    33     8    32 1
    34     9    33 1
    35    10    34 1
    36    13    35 1
    37    13    36 1
    38    16    37 1
    39    16    38 1
    40    16    39 1
    41    17    40 1
    42    17    41 1
    43    17    42 1
    44    18    43 1
    45    18    44 1
    46    19    45 1
    47    19    46 1
    48    20    47 1
    49    20    48 1
    50    22    49 1
    51    22    50 1
    52    22    51 1
    53    52     5 1
@<TRIPOS>SUBSTRUCTURE
     1 A6V         1 TEMP              0 ****  ****    0 ROOT
