@<TRIPOS>MOLECULE
molecule
   24    25     1     0     0
SMALL
bcc


@<TRIPOS>ATOM
      1 C10          0.0000     0.0000     0.0000 cc         1 A6W      -0.074100
      2 C9           1.3380     0.0000     0.0000 cd         1 A6W      -0.153000
      3 C8           1.9240     0.0000     1.2460 cd         1 A6W      -0.146000
      4 C7           1.0420     0.0000     2.2840 cc         1 A6W       0.028900
      5 C4           1.0860     0.0000     5.9930 cd         1 A6W       0.238600
      6 C5           0.5140     0.0000     4.7450 cd         1 A6W      -0.196000
      7 C6           1.4050     0.0000     3.7090 cc         1 A6W       0.065900
      8 C3           2.4630    -0.0010     5.9890 cc         1 A6W      -0.145700
      9 C2           3.2790    -0.0010     7.1390 c          1 A6W       0.681700
     10 O1           4.6240    -0.0010     7.0120 os         1 A6W      -0.432900
     11 O2           2.7720    -0.0000     8.2460 o          1 A6W      -0.537000
     12 S1           3.0490    -0.0010     4.3310 ss         1 A6W      -0.045800
     13 S2          -0.6000     0.0000     1.6520 ss         1 A6W      -0.119800
     14 H1          -0.6220    -0.0000    -0.8870 h4         1 A6W       0.173000
     15 H2           1.9190    -0.0000    -0.9150 ha         1 A6W       0.151000
     16 H3           2.9980    -0.0000     1.3900 ha         1 A6W       0.152000
     17 H4          -0.5580     0.0010     4.5940 ha         1 A6W       0.161000
     18 H5           5.1510    -0.8850     8.7970 h1         1 A6W       0.046367
     19 H6           6.4450    -0.0020     7.9760 h1         1 A6W       0.046367
     20 H7           5.1520     0.8840     8.7960 h1         1 A6W       0.046367
     21 H8           0.0470    -0.8600     7.5780 hn         1 A6W       0.439300
     22 H9           0.0510     0.8740     7.5740 hn         1 A6W       0.439300
     23 N1           0.3360     0.0050     7.1660 nv         1 A6W      -0.963200
     24 C1           5.3890    -0.0010     8.2180 c3         1 A6W       0.140700
@<TRIPOS>BOND
     1     1    13 1
     2     1     2 2
     3    13     4 1
     4     2     3 1
     5     4     3 2
     6     4     7 1
     7     6     7 2
     8     6     5 1
     9     7    12 1
    10    23     5 1
    11     5     8 2
    12    12     8 1
    13     8     9 1
    14    10     9 1
    15    10    24 1
    16     9    11 2
    17     1    14 1
    18     2    15 1
    19     3    16 1
    20     6    17 1
    21    24    18 1
    22    24    19 1
    23    24    20 1
    24    23    21 1
    25    23    22 1
@<TRIPOS>SUBSTRUCTURE
     1 A6W         1 TEMP              0 ****  ****    0 ROOT
