@<TRIPOS>MOLECULE
A6W
   24    25     1     0     0
SMALL
bcc


@<TRIPOS>ATOM
      1 C10          0.0000     0.0000     0.0000 cc         1 A6W       0.010900
      2 C9           1.3380     0.0000     0.0000 cd         1 A6W      -0.124000
      3 C8           1.9240     0.0000     1.2460 cd         1 A6W      -0.113000
      4 C7           1.0420     0.0000     2.2840 cc         1 A6W       0.081900
      5 C4           1.0860     0.0000     5.9930 cd         1 A6W       0.113600
      6 C5           0.5140     0.0000     4.7450 cd         1 A6W      -0.169000
      7 C6           1.4050     0.0000     3.7090 cc         1 A6W       0.136900
      8 C3           2.4630    -0.0010     5.9890 cc         1 A6W      -0.098700
      9 C2           3.2790    -0.0010     7.1390 c          1 A6W       0.753700
     10 O1           4.6240    -0.0010     7.0120 os         1 A6W      -0.410900
     11 O2           2.7720    -0.0000     8.2460 o          1 A6W      -0.584000
     12 S1           3.0490    -0.0010     4.3310 ss         1 A6W      -0.198800
     13 S2          -0.6000     0.0000     1.6520 ss         1 A6W      -0.249800
     14 H1          -0.6220    -0.0000    -0.8870 h4         1 A6W       0.150000
     15 H2           1.9190    -0.0000    -0.9150 ha         1 A6W       0.123000
     16 H3           2.9980    -0.0000     1.3900 ha         1 A6W       0.131000
     17 H4          -0.5580     0.0010     4.5940 ha         1 A6W       0.140000
     18 H5           5.1510    -0.8850     8.7970 h1         1 A6W      -0.000300
     19 H6           6.4450    -0.0020     7.9760 h1         1 A6W      -0.000300
     20 H7           5.1520     0.8840     8.7960 h1         1 A6W      -0.000300
     21 H8           0.0470    -0.8600     7.5780 hn         1 A6W       0.282800
     22 H9           0.0510     0.8740     7.5740 hn         1 A6W       0.282800
     23 N1           0.3360     0.0050     7.1660 nv         1 A6W      -0.525200
     24 C1           5.3890    -0.0010     8.2180 c3         1 A6W       0.267700
@<TRIPOS>BOND
     1     1     2 2   
     2     1    13 1   
     3     1    14 1   
     4     2     3 1   
     5     2    15 1   
     6     3     4 2   
     7     3    16 1   
     8     4     7 1   
     9     4    13 1   
    10     5     6 1   
    11     5     8 2   
    12     5    23 1   
    13     6     7 2   
    14     6    17 1   
    15     7    12 1   
    16     8     9 1   
    17     8    12 1   
    18     9    10 1   
    19     9    11 2   
    20    10    24 1   
    21    18    24 1   
    22    19    24 1   
    23    20    24 1   
    24    21    23 1   
    25    22    23 1   
@<TRIPOS>SUBSTRUCTURE
     1 A6W         1 TEMP              0 ****  ****    0 ROOT
