@<TRIPOS>MOLECULE
molecule
   31    32     1     0     0
SMALL
bcc


@<TRIPOS>ATOM
      1 C12         -0.9660    -0.1030    -1.1050 c1         1 A6Z       0.123700
      2 C11          0.0000     0.0000     0.0000 c3         1 A6Z       0.193900
      3 C10          3.7530     0.0000     0.0000 c3         1 A6Z       0.127800
      4 C9           2.3310     0.0000     0.5640 c3         1 A6Z       0.099300
      5 C8           1.5570     1.2350    -1.3420 c3         1 A6Z       0.099300
      6 C7           2.9730     1.2450    -1.9230 c3         1 A6Z       0.127800
      7 C4           6.3410     1.1970    -0.3860 ca         1 A6Z      -0.116000
      8 C5           7.6380     1.2460    -0.8640 ca         1 A6Z       0.061400
      9 C6           7.8710     1.3310    -2.2250 ca         1 A6Z      -0.119000
     10 C3           5.2740     1.2330    -1.2730 ca         1 A6Z       0.065600
     11 C2           5.5120     1.3230    -2.6380 ca         1 A6Z      -0.172000
     12 C1           6.8100     1.3660    -3.1110 ca         1 A6Z      -0.088000
     13 N1           3.9500     1.2000    -0.8250 nh         1 A6Z      -0.574000
     14 N2           1.3640     0.0180    -0.5420 nx         1 A6Z      -0.654400
     15 N3          -1.7130    -0.2020    -1.9560 n1         1 A6Z      -0.211800
     16 H1          -0.1810     0.9130     0.5540 hx         1 A6Z       0.129700
     17 H2          -0.1150    -0.8510     0.6600 hx         1 A6Z       0.129700
     18 H3           4.4550     0.1040     0.8190 h1         1 A6Z       0.086950
     19 H4           3.9300    -0.9420    -0.5050 h1         1 A6Z       0.086950
     20 H5           2.2350     0.8130     1.2730 hx         1 A6Z       0.112950
     21 H6           2.1560    -0.9400     1.0730 hx         1 A6Z       0.112950
     22 H7           0.8460     1.1510    -2.1540 hx         1 A6Z       0.112950
     23 H8           1.3890     2.1660    -0.8150 hx         1 A6Z       0.112950
     24 H9           3.0580     0.4480    -2.6520 h1         1 A6Z       0.086950
     25 H10          3.1440     2.1960    -2.4130 h1         1 A6Z       0.086950
     26 H11          6.1590     1.1310     0.6800 ha         1 A6Z       0.148000
     27 H12          8.8870     1.3690    -2.6000 ha         1 A6Z       0.167000
     28 H13          4.6810     1.3510    -3.3330 ha         1 A6Z       0.133000
     29 H14          6.9950     1.4330    -4.1760 ha         1 A6Z       0.154000
     30 H15          1.5080    -0.7860    -1.1210 hn         1 A6Z       0.460800
     31 Cl1          9.1900     1.0220    -0.0170 cl         1 A6Z      -0.083400
@<TRIPOS>BOND
     1     9    12 ar
     2     9     8 ar
     3    12    11 ar
     4    31     8 1
     5     8     7 ar
     6    11    10 ar
     7     7    10 ar
     8    10    13 1
     9     6    13 1
    10     6     5 1
    11    13     3 1
    12     5    14 1
    13     3     4 1
    14     4    14 1
    15    14     2 1
    16     2     1 1
    17     1    15 3
    18     2    16 1
    19     2    17 1
    20     3    18 1
    21     3    19 1
    22     4    20 1
    23     4    21 1
    24     5    22 1
    25     5    23 1
    26     6    24 1
    27     6    25 1
    28     7    26 1
    29     9    27 1
    30    11    28 1
    31    12    29 1
    32    14    30 1
@<TRIPOS>SUBSTRUCTURE
     1 A6Z         1 TEMP              0 ****  ****    0 ROOT
