@<TRIPOS>MOLECULE
A6Z
   31    32     1     0     0
SMALL
bcc


@<TRIPOS>ATOM
      1 C12         -0.9660    -0.1030    -1.1050 c1         1 A6Z       0.069700
      2 C11          0.0000     0.0000     0.0000 c3         1 A6Z       0.160900
      3 C10          3.7530     0.0000     0.0000 c3         1 A6Z       0.114800
      4 C9           2.3310     0.0000     0.5640 c3         1 A6Z      -0.019700
      5 C8           1.5570     1.2350    -1.3420 c3         1 A6Z      -0.019700
      6 C7           2.9730     1.2450    -1.9230 c3         1 A6Z       0.114800
      7 C4           6.3410     1.1970    -0.3860 ca         1 A6Z      -0.083000
      8 C5           7.6380     1.2460    -0.8640 ca         1 A6Z      -0.012600
      9 C6           7.8710     1.3310    -2.2250 ca         1 A6Z      -0.099000
     10 C3           5.2740     1.2330    -1.2730 ca         1 A6Z      -0.021400
     11 C2           5.5120     1.3230    -2.6380 ca         1 A6Z      -0.154000
     12 C1           6.8100     1.3660    -3.1110 ca         1 A6Z      -0.050000
     13 N1           3.9500     1.2000    -0.8250 nh         1 A6Z      -0.349000
     14 N2           1.3640     0.0180    -0.5420 nx         1 A6Z       0.017600
     15 N3          -1.7130    -0.2020    -1.9560 n1         1 A6Z      -0.192800
     16 H1          -0.1810     0.9130     0.5540 hx         1 A6Z       0.088200
     17 H2          -0.1150    -0.8510     0.6600 hx         1 A6Z       0.088200
     18 H3           4.4550     0.1040     0.8190 h1         1 A6Z       0.058200
     19 H4           3.9300    -0.9420    -0.5050 h1         1 A6Z       0.058200
     20 H5           2.2350     0.8130     1.2730 hx         1 A6Z       0.086200
     21 H6           2.1560    -0.9400     1.0730 hx         1 A6Z       0.086200
     22 H7           0.8460     1.1510    -2.1540 hx         1 A6Z       0.086200
     23 H8           1.3890     2.1660    -0.8150 hx         1 A6Z       0.086200
     24 H9           3.0580     0.4480    -2.6520 h1         1 A6Z       0.058200
     25 H10          3.1440     2.1960    -2.4130 h1         1 A6Z       0.058200
     26 H11          6.1590     1.1310     0.6800 ha         1 A6Z       0.119000
     27 H12          8.8870     1.3690    -2.6000 ha         1 A6Z       0.134000
     28 H13          4.6810     1.3510    -3.3330 ha         1 A6Z       0.115000
     29 H14          6.9950     1.4330    -4.1760 ha         1 A6Z       0.119000
     30 H15          1.5080    -0.7860    -1.1210 hn         1 A6Z       0.267800
     31 Cl1          9.1900     1.0220    -0.0170 cl         1 A6Z       0.014600
@<TRIPOS>BOND
     1     1     2 1   
     2     1    15 3   
     3     2    14 1   
     4     2    16 1   
     5     2    17 1   
     6     3     4 1   
     7     3    13 1   
     8     3    18 1   
     9     3    19 1   
    10     4    14 1   
    11     4    20 1   
    12     4    21 1   
    13     5     6 1   
    14     5    14 1   
    15     5    22 1   
    16     5    23 1   
    17     6    13 1   
    18     6    24 1   
    19     6    25 1   
    20     7     8 ar  
    21     7    10 ar  
    22     7    26 1   
    23     8     9 ar  
    24     8    31 1   
    25     9    12 ar  
    26     9    27 1   
    27    10    11 ar  
    28    10    13 1   
    29    11    12 ar  
    30    11    28 1   
    31    12    29 1   
    32    14    30 1   
@<TRIPOS>SUBSTRUCTURE
     1 A6Z         1 TEMP              0 ****  ****    0 ROOT
