@<TRIPOS>MOLECULE
A73
   27    29     1     0     0
SMALL
bcc


@<TRIPOS>ATOM
      1 CAB         0.0600    0.2770   -0.0730 cc        1 A73     -0.312200
      2 CAD         1.5230    0.2980   -0.0650 c         1 A73      0.589900
      3 OAH         2.1960    0.4760   -1.0900 o         1 A73     -0.542100
      4 CAE         2.1170    0.0920    1.2640 ca        1 A73     -0.214600
      5 CAO         3.5080    0.0880    1.4530 ca        1 A73     -0.046000
      6 CAQ         4.0430   -0.1100    2.7190 ca        1 A73     -0.165000
      7 CAR         3.2000   -0.3080    3.8190 ca        1 A73     -0.077000
      8 CAP         1.8190   -0.3090    3.6640 ca        1 A73     -0.159000
      9 CAF         1.2870   -0.1070    2.3770 ca        1 A73      0.142100
     10 OAC        -0.0980   -0.1220    2.3030 os        1 A73     -0.225200
     11 CAA        -0.6640    0.0730    1.0510 cd        1 A73      0.190900
     12 CAG        -2.1270    0.0400    1.1180 ca        1 A73     -0.063800
     13 CAI        -2.8690   -0.3700    0.0010 ca        1 A73     -0.094000
     14 CAM        -4.2600   -0.3870    0.0530 ca        1 A73     -0.110500
     15 CAK        -4.9240    0.0030    1.2200 ca        1 A73     -0.009900
     16 Br1        -6.7950   -0.0170    1.2860 br        1 A73     -0.076100
     17 CAL        -4.1880    0.4060    2.3380 ca        1 A73     -0.110500
     18 CAJ        -2.7960    0.4230    2.2880 ca        1 A73     -0.094000
     19 H1         -0.4300    0.4450   -1.0430 ha        1 A73      0.169000
     20 H2          4.1580    0.2440    0.5760 ha        1 A73      0.161000
     21 H3          5.1340   -0.1130    2.8610 ha        1 A73      0.142000
     22 H4          3.6330   -0.4650    4.8190 ha        1 A73      0.141000
     23 H5          1.1430   -0.4640    4.5160 ha        1 A73      0.154000
     24 H6         -2.3540   -0.6870   -0.9190 ha        1 A73      0.151000
     25 H7         -4.8300   -0.7100   -0.8330 ha        1 A73      0.153000
     26 H8         -4.7000    0.7120    3.2640 ha        1 A73      0.153000
     27 H9         -2.2160    0.7350    3.1710 ha        1 A73      0.151000
@<TRIPOS>BOND
     1    1    2 1   
     2    1   11 2   
     3    1   19 1   
     4    2    3 2   
     5    2    4 1   
     6    4    5 ar  
     7    4    9 ar  
     8    5    6 ar  
     9    5   20 1   
    10    6    7 ar  
    11    6   21 1   
    12    7    8 ar  
    13    7   22 1   
    14    8    9 ar  
    15    8   23 1   
    16    9   10 1   
    17   10   11 1   
    18   11   12 1   
    19   12   13 ar  
    20   12   18 ar  
    21   13   14 ar  
    22   13   24 1   
    23   14   15 ar  
    24   14   25 1   
    25   15   16 1   
    26   15   17 ar  
    27   17   18 ar  
    28   17   26 1   
    29   18   27 1   
@<TRIPOS>SUBSTRUCTURE
     1 A73         1 TEMP              0 ****  ****    0 ROOT
