@<TRIPOS>MOLECULE
molecule
   27    29     1     0     0
SMALL
bcc


@<TRIPOS>ATOM
      1 CAB          0.0000     0.0000     0.0000 cc         1 A73      -0.337200
      2 CAD          1.4140     0.0000     0.0000 c          1 A73       0.585900
      3 OAH          2.0480     0.0000    -1.0420 o          1 A73      -0.546100
      4 CAE          2.0930     0.0000     1.3110 ca         1 A73      -0.227600
      5 CAO          3.4840     0.0010     1.4080 ca         1 A73      -0.039000
      6 CAQ          4.0790     0.0010     2.6510 ca         1 A73      -0.164000
      7 CAR          3.3010     0.0010     3.7990 ca         1 A73      -0.075000
      8 CAP          1.9250     0.0000     3.7170 ca         1 A73      -0.155000
      9 CAF          1.3050     0.0000     2.4730 ca         1 A73       0.156100
     10 OAC         -0.0420    -0.0010     2.3700 os         1 A73      -0.215200
     11 CAA         -0.6710    -0.0000     1.1850 cd         1 A73       0.205900
     12 CAG         -2.1470     0.0060     1.1650 ca         1 A73      -0.059800
     13 CAI         -2.8310     0.0070    -0.0520 ca         1 A73      -0.093500
     14 CAM         -4.2100     0.0130    -0.0640 ca         1 A73      -0.107500
     15 CAK         -4.9160     0.0190     1.1280 ca         1 A73      -0.002900
     16 Br1         -6.8060     0.0270     1.1020 br         1 A73      -0.083100
     17 CAL         -4.2420     0.0180     2.3380 ca         1 A73      -0.107500
     18 CAJ         -2.8640     0.0060     2.3640 ca         1 A73      -0.093500
     19 H1          -0.5460     0.0010    -0.9360 ha         1 A73       0.169000
     20 H2           4.0920     0.0010     0.5120 ha         1 A73       0.160000
     21 H3           5.1590     0.0020     2.7310 ha         1 A73       0.140000
     22 H4           3.7790     0.0010     4.7710 ha         1 A73       0.140000
     23 H5           1.3270     0.0000     4.6210 ha         1 A73       0.147000
     24 H6          -2.2800     0.0020    -0.9850 ha         1 A73       0.151500
     25 H7          -4.7430     0.0140    -1.0080 ha         1 A73       0.151000
     26 H8          -4.8000     0.0200     3.2660 ha         1 A73       0.151000
     27 H9          -2.3380     0.0050     3.3110 ha         1 A73       0.151500
@<TRIPOS>BOND
     1     6     5 ar
     2     6     7 ar
     3     5     4 ar
     4     7     8 ar
     5     3     2 2
     6     4     2 1
     7     4     9 ar
     8     2     1 1
     9     8     9 ar
    10     9    10 1
    11     1    11 2
    12    10    11 1
    13    11    12 1
    14    12    18 ar
    15    12    13 ar
    16    18    17 ar
    17    13    14 ar
    18    17    15 ar
    19    14    15 ar
    20    15    16 1
    21     1    19 1
    22     5    20 1
    23     6    21 1
    24     7    22 1
    25     8    23 1
    26    13    24 1
    27    14    25 1
    28    17    26 1
    29    18    27 1
@<TRIPOS>SUBSTRUCTURE
     1 A73         1 TEMP              0 ****  ****    0 ROOT
