@<TRIPOS>MOLECULE
A74
   46    44     1     0     0
SMALL
bcc


@<TRIPOS>ATOM
      1 C           1.0160   -1.7580    0.4630 c2        1 A74     -0.138000
      2 C1          2.0320   -2.3720    1.2930 c2        1 A74     -0.139000
      3 C2          3.0140   -1.6670    1.8790 c2        1 A74     -0.134000
      4 C3          1.2860   -0.3410    2.9750 c1        1 A74      0.435000
      5 C4          0.1180   -0.3930    2.3190 c2        1 A74     -1.093000
      6 C5          0.1570   -0.8260    0.9220 c2        1 A74      0.019000
      7 S          -1.3810   -0.0690    3.0370 s6        1 A74      2.884000
      8 O1         -2.3710   -0.9280    2.5450 o         1 A74     -0.903000
      9 O2         -1.1970   -0.0670    4.4220 o         1 A74     -0.903000
     10 N          -1.7490    1.4400    2.4840 nh        1 A74     -0.772000
     11 C6         -0.9720    2.5630    2.6850 c2        1 A74      0.147000
     12 N1          0.2620    2.6870    3.2240 n2        1 A74     -0.182000
     13 C7          0.5440    4.0550    3.1800 c2        1 A74     -0.145000
     14 C8          3.4220    6.3350    4.2120 c1        1 A74     -0.332000
     15 C9          3.1280    7.5610    3.8560 c2        1 A74      0.047000
     16 C10         0.1630    7.0750    2.4520 c1        1 A74      0.214000
     17 C11        -0.7730    6.1290    2.3100 c2        1 A74     -0.238000
     18 C12        -0.5200    4.7450    2.6060 c2        1 A74     -0.007000
     19 O3         -1.5160    3.8050    2.2740 os        1 A74     -0.116000
     20 CL2         4.1860   -2.3850    2.8610 cl        1 A74      0.002000
     21 CL1        -0.9310   -0.0740   -0.1490 cl        1 A74      0.005000
     22 O4          3.9000    8.6650    4.1170 oh        1 A74     -0.255000
     23 C13         3.6750    5.1090    4.5460 c2        1 A74     -0.116000
     24 C14        -4.5750    9.4600    5.9420 c1        1 A74     -0.273000
     25 C15        -4.9760    9.1560    4.6290 c1        1 A74      0.098000
     26 N2         -3.2110    8.7340    2.2190 n2        1 A74     -0.192000
     27 C16        -2.7030    7.6250    2.1060 c1        1 A74      0.032000
     28 C17        -2.0940    6.4880    1.8090 c2        1 A74     -0.219000
     29 C18        -4.0640    9.7160    7.0000 c1        1 A74     -0.091000
     30 C19        -7.3330    9.1500    5.1190 c3        1 A74     -0.155000
     31 H           0.9660   -2.1160   -0.5800 ha        1 A74      0.169000
     32 H1          1.9530   -3.4690    1.4070 ha        1 A74      0.162000
     33 H3          3.2000   -0.5920    1.7150 h4        1 A74      0.169000
     34 HN         -2.5580    1.6090    1.9240 hn        1 A74      0.276000
     35 H8          1.4920    4.4420    3.5680 h4        1 A74      0.204000
     36 H10         2.2170    7.8590    3.2980 h4        1 A74      0.200000
     37 H131        4.6930    8.3910    4.6000 ho        1 A74      0.213000
     38 H132        3.3410    4.6750    5.5010 ha        1 A74      0.122000
     39 H133        4.2420    4.4250    3.8960 ha        1 A74      0.122000
     40 H14        -3.6070    9.9410    7.9330 ha        1 A74      0.231000
     41 H16        -3.8490    8.9740    2.9660 hn        1 A74      0.262000
     42 H18        -2.5880    5.7480    1.1600 ha        1 A74      0.175000
     43 H191       -7.0510    8.9370    6.1760 h1        1 A74      0.102000
     44 H192       -8.0800    8.4100    4.7420 h1        1 A74      0.102000
     45 H193       -7.7130   10.1930    5.0070 h1        1 A74      0.102000
     46 O5         -6.1940    9.0070    4.2420 os        1 A74     -0.092000
@<TRIPOS>BOND
     1    1    2 1   
     2    1    6 1   
     3    1   31 1   
     4    2    3 1   
     5    2   32 1   
     6    3   20 1   
     7    3   33 1   
     8    4    5 1   
     9    5    6 1   
    10    5    7 1   
    11    6   21 1   
    12    7    8 1   
    13    7    9 1   
    14    7   10 1   
    15   10   11 1   
    16   10   34 1   
    17   11   12 1   
    18   11   19 1   
    19   12   13 1   
    20   13   18 1   
    21   13   35 1   
    22   14   15 1   
    23   14   23 1   
    24   15   22 1   
    25   15   36 1   
    26   16   17 1   
    27   17   18 1   
    28   17   28 1   
    29   18   19 1   
    30   22   37 1   
    31   23   38 1   
    32   23   39 1   
    33   24   25 1   
    34   24   29 1   
    35   25   46 1   
    36   26   27 1   
    37   26   41 1   
    38   27   28 1   
    39   28   42 1   
    40   29   40 1   
    41   30   43 1   
    42   30   44 1   
    43   30   45 1   
    44   30   46 1   
@<TRIPOS>SUBSTRUCTURE
     1 A74         1 TEMP              0 ****  ****    0 ROOT
