@<TRIPOS>MOLECULE
molecule
   39    41     1     0     0
SMALL
bcc


@<TRIPOS>ATOM
      1 C1           0.0000     0.0000     0.0000 c3         1 A75      -0.084400
      2 C2           1.5280     0.0000     0.0000 c3         1 A75      -0.026100
      3 C3           2.0590     0.0000     1.4110 ca         1 A75      -0.108300
      4 C4           1.2870     0.3520     2.4890 ca         1 A75      -0.040300
      5 C5          -0.1580     0.7570     2.3580 c3         1 A75      -0.034100
      6 C6          -0.4820     1.1330     0.9140 c3         1 A75      -0.084400
      7 C7           3.3880    -0.3740     1.5990 ca         1 A75      -0.139000
      8 C8           3.9470    -0.3950     2.8560 ca         1 A75      -0.199000
      9 C9           3.1850    -0.0310     3.9590 ca         1 A75       0.141600
     10 C10          1.8460     0.3370     3.7780 ca         1 A75      -0.086600
     11 C11          1.0240     0.7160     4.9390 c          1 A75       0.879200
     12 O12          0.9760     2.0010     5.3410 o          1 A75      -0.831300
     13 O13          0.3870    -0.1310     5.5350 o          1 A75      -0.831300
     14 N14          3.7410    -0.0470     5.2310 nu         1 A75      -0.739500
     15 S15          5.3260     0.3810     5.4470 sy         1 A75       1.430200
     16 C16          5.5100     2.0360     4.8720 ca         1 A75      -0.289500
     17 O17          5.5240     0.4360     6.8520 o          1 A75      -0.657800
     18 O18          6.0700    -0.4260     4.5420 o          1 A75      -0.657800
     19 C19          5.8450     2.2770     3.5520 ca         1 A75      -0.011000
     20 C20          5.9840     3.5760     3.1010 ca         1 A75      -0.160000
     21 C21          5.7960     4.6340     3.9710 ca         1 A75      -0.082000
     22 C22          5.4660     4.3930     5.2910 ca         1 A75      -0.160000
     23 C23          5.3230     3.0940     5.7420 ca         1 A75      -0.011000
     24 H11         -0.3530     0.1850    -1.0070 hc         1 A75       0.033700
     25 H12A        -0.3530    -0.9450     0.3940 hc         1 A75       0.033700
     26 H21A         1.8720    -0.8980    -0.4980 hc         1 A75       0.036200
     27 H22A         1.8730     0.8980    -0.4980 hc         1 A75       0.036200
     28 H51         -0.7890    -0.0710     2.6590 hc         1 A75       0.072700
     29 H52         -0.3490     1.6090     2.9980 hc         1 A75       0.072700
     30 H61          0.0490     2.0420     0.6580 hc         1 A75       0.035700
     31 H62         -1.5550     1.2390     0.8090 hc         1 A75       0.035700
     32 H7           3.9880    -0.6590     0.7440 ha         1 A75       0.109000
     33 H8           4.9840    -0.6820     2.9840 ha         1 A75       0.162000
     34 H14          3.2010    -0.3720     6.0090 hn         1 A75       0.485800
     35 H19          6.0600     1.4480     2.8890 ha         1 A75       0.151500
     36 H20          6.2420     3.7660     2.0660 ha         1 A75       0.125500
     37 H21          5.9080     5.6520     3.6180 ha         1 A75       0.118000
     38 H22          5.3190     5.2220     5.9730 ha         1 A75       0.125500
     39 H23          5.0860     3.0060     6.7960 ha         1 A75       0.151500
@<TRIPOS>BOND
     1     1     2 1
     2     1     6 1
     3     1    24 1
     4     1    25 1
     5     2     3 1
     6     2    26 1
     7     2    27 1
     8     3     4 ar
     9     3     7 ar
    10     4     5 1
    11     4    10 ar
    12     5     6 1
    13     5    28 1
    14     5    29 1
    15     6    30 1
    16     6    31 1
    17     7     8 ar
    18     7    32 1
    19     8     9 ar
    20     8    33 1
    21     9    10 ar
    22     9    14 1
    23    10    11 1
    24    11    12 1
    25    11    13 1
    26    14    15 1
    27    14    34 1
    28    15    16 1
    29    15    17 2
    30    15    18 2
    31    16    19 ar
    32    16    23 ar
    33    19    20 ar
    34    19    35 1
    35    20    21 ar
    36    20    36 1
    37    21    22 ar
    38    21    37 1
    39    22    23 ar
    40    22    38 1
    41    23    39 1
@<TRIPOS>SUBSTRUCTURE
     1 A75         1 TEMP              0 ****  ****    0 ROOT
