@<TRIPOS>MOLECULE
molecule
   25    26     1     0     0
SMALL
bcc


@<TRIPOS>ATOM
      1 C1           0.0000     0.0000     0.0000 ca         1 A7B      -0.111000
      2 C2           1.3990     0.0000     0.0000 ca         1 A7B      -0.096800
      3 C3           2.1000     0.0000     1.2190 ca         1 A7B       0.071600
      4 C4           1.3870    -0.0010     2.4190 ca         1 A7B       0.093100
      5 C5           0.0050    -0.0020     2.3930 ca         1 A7B      -0.180000
      6 C6          -0.6800     0.0050     1.1850 ca         1 A7B      -0.126000
      7 C7           2.1550     0.0020    -1.2530 cc         1 A7B       0.002600
      8 C8           3.5100     0.0030    -1.1930 cd         1 A7B      -0.235200
      9 C9           4.1660     0.0020     0.0570 c          1 A7B       0.693700
     10 N10          3.4800     0.0000     1.2130 ns         1 A7B      -0.419100
     11 O11          2.0480    -0.0020     3.6070 os         1 A7B      -0.336900
     12 O12          5.3850     0.0020     0.0890 o          1 A7B      -0.649500
     13 C13          1.4450     0.0020    -2.5830 c3         1 A7B      -0.056900
     14 C14          1.2510    -0.0040     4.7930 c3         1 A7B       0.132700
     15 H1          -0.5430     0.0060    -0.9370 ha         1 A7B       0.138000
     16 H5          -0.5490     0.0020     3.3240 ha         1 A7B       0.140000
     17 H6          -1.7630     0.0040     1.1830 ha         1 A7B       0.135000
     18 H8           4.0910     0.0050    -2.1070 ha         1 A7B       0.165000
     19 HN10         3.9770    -0.0010     2.0820 hn         1 A7B       0.351500
     20 H13          2.1760     0.0010    -3.3830 hc         1 A7B       0.052033
     21 H13A         0.8250     0.8870    -2.6610 hc         1 A7B       0.052033
     22 H13B         0.8240    -0.8820    -2.6600 hc         1 A7B       0.052033
     23 H14          0.6250    -0.8880     4.8060 h1         1 A7B       0.044367
     24 H14A         1.8970    -0.0060     5.6630 h1         1 A7B       0.044367
     25 H14B         0.6260     0.8810     4.8100 h1         1 A7B       0.044367
@<TRIPOS>BOND
     1     2     1 ar
     2     6     1 ar
     3     1    15 1
     4     3     2 ar
     5     2     7 1
     6    10     3 1
     7     4     3 ar
     8    11     4 1
     9     4     5 ar
    10     5     6 ar
    11     5    16 1
    12     6    17 1
    13     8     7 2
    14     7    13 1
    15     9     8 1
    16     8    18 1
    17    12     9 2
    18    10     9 1
    19    10    19 1
    20    14    11 1
    21    13    20 1
    22    13    21 1
    23    13    22 1
    24    14    23 1
    25    14    24 1
    26    14    25 1
@<TRIPOS>SUBSTRUCTURE
     1 A7B         1 TEMP              0 ****  ****    0 ROOT
