@<TRIPOS>MOLECULE
A7B
   25    26     1     0     0
SMALL
bcc


@<TRIPOS>ATOM
      1 C1           0.0000     0.0000     0.0000 ca         1 A7B      -0.091000
      2 C2           1.3990     0.0000     0.0000 ca         1 A7B      -0.086800
      3 C3           2.1000     0.0000     1.2190 ca         1 A7B      -0.096400
      4 C4           1.3870    -0.0010     2.4190 ca         1 A7B       0.107100
      5 C5           0.0050    -0.0020     2.3930 ca         1 A7B      -0.170000
      6 C6          -0.6800     0.0050     1.1850 ca         1 A7B      -0.090000
      7 C7           2.1550     0.0020    -1.2530 cc         1 A7B      -0.004400
      8 C8           3.5100     0.0030    -1.1930 cd         1 A7B      -0.213200
      9 C9           4.1660     0.0020     0.0570 c          1 A7B       0.588700
     10 N10          3.4800     0.0000     1.2130 ns         1 A7B       0.055900
     11 O11          2.0480    -0.0020     3.6070 os         1 A7B      -0.315900
     12 O12          5.3850     0.0020     0.0890 o          1 A7B      -0.695500
     13 C13          1.4450     0.0020    -2.5830 c3         1 A7B       0.053100
     14 C14          1.2510    -0.0040     4.7930 c3         1 A7B       0.251700
     15 H1          -0.5430     0.0060    -0.9370 ha         1 A7B       0.113000
     16 H5          -0.5490     0.0020     3.3240 ha         1 A7B       0.121000
     17 H6          -1.7630     0.0040     1.1830 ha         1 A7B       0.105000
     18 H8           4.0910     0.0050    -2.1070 ha         1 A7B       0.137000
     19 HN10         3.9770    -0.0010     2.0820 hn         1 A7B       0.185500
     20 H13          2.1760     0.0010    -3.3830 hc         1 A7B       0.015033
     21 H13A         0.8250     0.8870    -2.6610 hc         1 A7B       0.015033
     22 H13B         0.8240    -0.8820    -2.6600 hc         1 A7B       0.015033
     23 H14          0.6250    -0.8880     4.8060 h1         1 A7B      -0.000300
     24 H14A         1.8970    -0.0060     5.6630 h1         1 A7B      -0.000300
     25 H14B         0.6260     0.8810     4.8100 h1         1 A7B      -0.000300
@<TRIPOS>BOND
     1     1     2 ar  
     2     1     6 ar  
     3     1    15 1   
     4     2     3 ar  
     5     2     7 1   
     6     3     4 ar  
     7     3    10 1   
     8     4     5 ar  
     9     4    11 1   
    10     5     6 ar  
    11     5    16 1   
    12     6    17 1   
    13     7     8 2   
    14     7    13 1   
    15     8     9 1   
    16     8    18 1   
    17     9    10 1   
    18     9    12 2   
    19    10    19 1   
    20    11    14 1   
    21    13    20 1   
    22    13    21 1   
    23    13    22 1   
    24    14    23 1   
    25    14    24 1   
    26    14    25 1   
@<TRIPOS>SUBSTRUCTURE
     1 A7B         1 TEMP              0 ****  ****    0 ROOT
