@<TRIPOS>MOLECULE
molecule
   46    48     1     0     0
SMALL
bcc


@<TRIPOS>ATOM
      1 N1           0.0000     0.0000     0.0000 nb         1 A7D      -0.821000
      2 C2           1.3200     0.0000     0.0000 ca         1 A7D       0.731900
      3 N3           2.0270     0.0000     1.1110 nb         1 A7D      -0.780000
      4 C4           1.4260     0.0000     2.2950 ca         1 A7D       0.466800
      5 C5           0.0220    -0.0000     2.3500 ca         1 A7D      -0.200200
      6 C6          -0.6890     0.0010     1.1370 ca         1 A7D       0.784200
      7 N6          -2.0720     0.0020     1.1270 nv         1 A7D      -1.004500
      8 N7          -0.3270     0.0000     3.6580 nc         1 A7D      -0.585100
      9 C8           0.7470     0.0000     4.3930 cd         1 A7D       0.432700
     10 N9           1.8550    -0.0010     3.5980 na         1 A7D      -0.264000
     11 OAC          4.1260    -3.6520    11.8250 oh         1 A7D      -0.599800
     12 OAD          6.1420     1.5810     5.0590 oh         1 A7D      -0.566800
     13 OAE          4.4830     1.8920     3.1530 oh         1 A7D      -0.559800
     14 CAH          5.4700    -5.6480    11.5950 c3         1 A7D       0.120400
     15 CAI          5.1330    -2.5850     9.2880 c3         1 A7D       0.011700
     16 CAJ          5.1740    -4.0620     9.6860 c3         1 A7D      -0.069400
     17 OAO          3.5380    -0.8120     5.2260 os         1 A7D      -0.397600
     18 SAP          4.9820    -2.4480     7.4860 ss         1 A7D      -0.320200
     19 CAT          5.3020    -4.1770    11.2070 c3         1 A7D       0.152100
     20 CAU          4.8380     1.1540     5.4570 c3         1 A7D       0.095100
     21 CAV          3.8290     1.3490     4.3030 c3         1 A7D       0.091100
     22 CAW          4.8220    -0.3690     5.7160 c3         1 A7D       0.142100
     23 CAX          3.3230    -0.0790     4.0010 c3         1 A7D       0.258800
     24 H2           1.8410    -0.0010    -0.9500 h5         1 A7D       0.062100
     25 HN6         -2.5680    -0.4800     0.4030 hn         1 A7D       0.448300
     26 HN6A        -2.5770     0.4990     1.8340 hn         1 A7D       0.448300
     27 H8           0.7590    -0.0000     5.4760 h5         1 A7D       0.084800
     28 HOAB         5.8910    -6.6420    13.2260 ho         1 A7D       0.407000
     29 HOAD         6.4460     2.2540     5.6470 ho         1 A7D       0.403000
     30 HOAE         4.1790     2.7720     3.0050 ho         1 A7D       0.408000
     31 HAH          6.3110    -6.0690    11.0580 h1         1 A7D       0.032200
     32 HAHA         4.5690    -6.1930    11.3400 h1         1 A7D       0.032200
     33 HAI          4.2820    -2.1070     9.7590 h1         1 A7D       0.060700
     34 HAIA         6.0450    -2.0980     9.6120 h1         1 A7D       0.060700
     35 HAJ          4.2620    -4.5490     9.3630 hc         1 A7D       0.066200
     36 HAJA         6.0250    -4.5390     9.2150 hc         1 A7D       0.066200
     37 HAT          6.1670    -3.6160    11.5400 h1         1 A7D       0.040700
     38 HAU          4.5090     1.6900     6.3390 h1         1 A7D       0.048700
     39 HAV          3.0110     1.9850     4.6170 h1         1 A7D       0.057700
     40 HAW          5.6200    -0.8510     5.1650 h1         1 A7D       0.092700
     41 HAX          3.8990    -0.5180     3.1960 h2         1 A7D       0.119700
     42 CAK          4.9480    -0.6550     7.2140 c3         1 A7D       0.012700
     43 HOAC         4.3690    -3.1330    12.5740 ho         1 A7D       0.410000
     44 OAB          5.7050    -5.7450    13.0000 oh         1 A7D      -0.613800
     45 HAK          5.8640    -0.2150     7.5900 h1         1 A7D       0.066200
     46 HAKA         4.1010    -0.2270     7.7370 h1         1 A7D       0.066200
@<TRIPOS>BOND
     1     1     2 ar
     2     1     6 ar
     3     2     3 ar
     4     3     4 ar
     5     4     5 ar
     6     4    10 1
     7     5     6 ar
     8     5     8 1
     9     6     7 1
    10     8     9 2
    11     9    10 1
    12    10    23 1
    13    44    14 1
    14    11    19 1
    15    12    20 1
    16    13    21 1
    17    14    19 1
    18    15    16 1
    19    15    18 1
    20    16    19 1
    21    42    18 1
    22    42    22 1
    23    17    22 1
    24    17    23 1
    25    20    21 1
    26    20    22 1
    27    21    23 1
    28     2    24 1
    29     7    25 1
    30     7    26 1
    31     9    27 1
    32    44    28 1
    33    11    43 1
    34    12    29 1
    35    13    30 1
    36    14    31 1
    37    14    32 1
    38    15    33 1
    39    15    34 1
    40    16    35 1
    41    16    36 1
    42    42    45 1
    43    42    46 1
    44    19    37 1
    45    20    38 1
    46    21    39 1
    47    22    40 1
    48    23    41 1
@<TRIPOS>SUBSTRUCTURE
     1 A7D         1 TEMP              0 ****  ****    0 ROOT
