@<TRIPOS>MOLECULE
A7G
   58    62     1     0     0
SMALL
bcc


@<TRIPOS>ATOM
      1 F2           0.0000     0.0000     0.0000 f          1 A7G      -0.222800
      2 C16          1.4000     0.0000     0.0000 c3         1 A7G       0.588700
      3 F1           1.8670     0.0000     1.3190 f          1 A7G      -0.222800
      4 O            1.8760    -1.1660    -0.6730 os         1 A7G      -0.321900
      5 C15          1.5120    -2.3690    -0.1580 ca         1 A7G       0.150100
      6 C14          0.7120    -2.4260     0.9740 ca         1 A7G      -0.192000
      7 C13          0.3430    -3.6510     1.4970 ca         1 A7G      -0.041000
      8 C12          0.7700    -4.8180     0.8930 ca         1 A7G      -0.125000
      9 C11          1.5680    -4.7640    -0.2350 ca         1 A7G      -0.046000
     10 C10          1.9350    -3.5420    -0.7650 ca         1 A7G      -0.157300
     11 C9           2.8040    -3.4850    -1.9940 c3         1 A7G       0.031600
     12 N2           4.2060    -3.3380    -1.5950 na         1 A7G       0.311700
     13 C2           4.8690    -2.1670    -1.3940 cc         1 A7G       0.231800
     14 C1           4.2650    -0.7960    -1.5490 c3         1 A7G      -0.001400
     15 C8           5.0980    -4.3630    -1.3480 ca         1 A7G      -0.254200
     16 C3           6.3120    -3.7440    -0.9990 ca         1 A7G       0.068400
     17 N1           6.1000    -2.4040    -1.0480 nd         1 A7G      -0.523100
     18 C7           5.0110    -5.7450    -1.3810 ca         1 A7G      -0.090000
     19 C6           6.1270    -6.5130    -1.0680 cp         1 A7G      -0.015000
     20 C5           7.3320    -5.8910    -0.7210 ca         1 A7G      -0.121000
     21 C4           7.4250    -4.5310    -0.6880 ca         1 A7G      -0.034000
     22 C17          6.0420    -7.9920    -1.1020 cp         1 A7G      -0.171300
     23 C21          4.8500    -8.6220    -1.4500 ca         1 A7G       0.425200
     24 N3           4.7680    -9.9380    -1.4810 nb         1 A7G      -0.623000
     25 C20          5.8050   -10.7070    -1.1860 ca         1 A7G       0.487200
     26 C19          7.0290   -10.1500    -0.8280 ca         1 A7G      -0.240300
     27 C18          7.1590    -8.7750    -0.7890 ca         1 A7G      -0.044000
     28 N4           5.6690   -12.0890    -1.2330 nh         1 A7G      -0.471300
     29 C25          4.3060   -12.4700    -1.6300 c3         1 A7G       0.143300
     30 C24          4.1750   -13.9950    -1.5920 c3         1 A7G       0.143300
     31 N5           5.1700   -14.5920    -2.4950 n7         1 A7G      -0.584200
     32 C23          6.5320   -14.2100    -2.0990 c3         1 A7G       0.143300
     33 C22          6.6630   -12.6860    -2.1350 c3         1 A7G       0.143300
     34 H1           1.7610     0.8850    -0.5110 h3         1 A7G       0.061700
     35 H2           0.3770    -1.5110     1.4470 ha         1 A7G       0.136000
     36 H3          -0.2820    -3.6960     2.3810 ha         1 A7G       0.107000
     37 H4           0.4820    -5.7770     1.3060 ha         1 A7G       0.111000
     38 H5           1.9000    -5.6810    -0.7080 ha         1 A7G       0.110000
     39 H6           2.5110    -2.6390    -2.6050 h1         1 A7G       0.042200
     40 H7           2.6850    -4.3990    -2.5640 h1         1 A7G       0.042200
     41 H8           4.9960    -0.1250    -1.9840 hc         1 A7G       0.020033
     42 H9           3.9640    -0.4210    -0.5780 hc         1 A7G       0.020033
     43 H10          3.3980    -0.8540    -2.1970 hc         1 A7G       0.020033
     44 H11          4.0780    -6.2260    -1.6500 ha         1 A7G       0.108000
     45 H12          8.1980    -6.4950    -0.4780 ha         1 A7G       0.111000
     46 H13          8.3620    -4.0600    -0.4180 ha         1 A7G       0.110000
     47 H14          3.9810    -8.0250    -1.6980 h4         1 A7G      -0.017900
     48 H15          7.8720   -10.7870    -0.5900 ha         1 A7G       0.123000
     49 H16          8.1000    -8.3150    -0.5140 ha         1 A7G       0.117000
     50 H17          3.5940   -12.0300    -0.9420 h1         1 A7G       0.027450
     51 H18          4.1110   -12.1170    -2.6350 h1         1 A7G       0.027450
     52 H19          4.3480   -14.3460    -0.5820 h1         1 A7G       0.011200
     53 H20          3.1800   -14.2790    -1.9130 h1         1 A7G       0.011200
     54 H21          5.0830   -15.5890    -2.4750 hn         1 A7G       0.253800
     55 H23          7.2440   -14.6490    -2.7880 h1         1 A7G       0.011200
     56 H24          6.7280   -14.5650    -1.0940 h1         1 A7G       0.011200
     57 H25          6.4910   -12.3330    -3.1440 h1         1 A7G       0.027450
     58 H26          7.6580   -12.4020    -1.8120 h1         1 A7G       0.027450
@<TRIPOS>BOND
     1     1     2 1   
     2     2     3 1   
     3     2     4 1   
     4     2    34 1   
     5     4     5 1   
     6     5     6 ar  
     7     5    10 ar  
     8     6     7 ar  
     9     6    35 1   
    10     7     8 ar  
    11     7    36 1   
    12     8     9 ar  
    13     8    37 1   
    14     9    10 ar  
    15     9    38 1   
    16    10    11 1   
    17    11    12 1   
    18    11    39 1   
    19    11    40 1   
    20    12    13 1   
    21    12    15 1   
    22    13    14 1   
    23    13    17 2   
    24    14    41 1   
    25    14    42 1   
    26    14    43 1   
    27    15    16 ar  
    28    15    18 ar  
    29    16    17 1   
    30    16    21 ar  
    31    18    19 ar  
    32    18    44 1   
    33    19    20 ar  
    34    19    22 1   
    35    20    21 ar  
    36    20    45 1   
    37    21    46 1   
    38    22    23 ar  
    39    22    27 ar  
    40    23    24 ar  
    41    23    47 1   
    42    24    25 ar  
    43    25    26 ar  
    44    25    28 1   
    45    26    27 ar  
    46    26    48 1   
    47    27    49 1   
    48    28    29 1   
    49    28    33 1   
    50    29    30 1   
    51    29    50 1   
    52    29    51 1   
    53    30    31 1   
    54    30    52 1   
    55    30    53 1   
    56    31    32 1   
    57    31    54 1   
    58    32    33 1   
    59    32    55 1   
    60    32    56 1   
    61    33    57 1   
    62    33    58 1   
@<TRIPOS>SUBSTRUCTURE
     1 A7G         1 TEMP              0 ****  ****    0 ROOT
