@<TRIPOS>MOLECULE
molecule
   24    25     1     0     0
SMALL
bcc


@<TRIPOS>ATOM
      1 C10          0.0000     0.0000     0.0000 c3         1 A7H      -0.095400
      2 C9           1.5070     0.0000     0.0000 cc         1 A7H       0.420200
      3 C8           5.3140     0.0020     0.7920 ca         1 A7H      -0.132000
      4 C7           3.9630     0.0010     0.4480 ca         1 A7H      -0.007100
      5 C4           5.8970    -0.0170    -1.5360 ca         1 A7H      -0.213000
      6 C5           4.5820    -0.0170    -1.8850 ca         1 A7H      -0.035000
      7 C6           3.5750    -0.0080    -0.8960 ca         1 A7H       0.082400
      8 C3           6.2780     0.0030    -0.1980 ca         1 A7H       0.153100
      9 C2           8.5360    -0.0170    -0.9400 c3         1 A7H       0.135400
     10 C1           9.9590    -0.0130    -0.3740 c3         1 A7H      -0.092100
     11 O1           7.5960     0.0030     0.1360 os         1 A7H      -0.326900
     12 S1           2.5100     0.0000     1.4430 ss         1 A7H      -0.151100
     13 N1           2.2370    -0.0040    -1.0520 nd         1 A7H      -0.573100
     14 H1          -0.3610    -0.8990    -0.4840 hc         1 A7H       0.059367
     15 H2          -0.3610     0.8690    -0.5370 hc         1 A7H       0.059367
     16 H3          -0.3610     0.0300     1.0210 hc         1 A7H       0.059367
     17 H4           5.6080     0.0170     1.8350 ha         1 A7H       0.151000
     18 H5           6.6560    -0.0160    -2.3090 ha         1 A7H       0.141000
     19 H6           4.3040    -0.0330    -2.9320 ha         1 A7H       0.146000
     20 H7           8.3930     0.8580    -1.5630 h1         1 A7H       0.035700
     21 H8           8.3860    -0.9110    -1.5320 h1         1 A7H       0.035700
     22 H9          10.1080     0.8800     0.2210 hc         1 A7H       0.049033
     23 H10         10.6720    -0.0270    -1.1890 hc         1 A7H       0.049033
     24 H11         10.1030    -0.8890     0.2470 hc         1 A7H       0.049033
@<TRIPOS>BOND
     1    10     9 1
     2     9    11 1
     3    11     8 1
     4     5     8 ar
     5     5     6 ar
     6     8     3 ar
     7     6     7 ar
     8     3     4 ar
     9     7     4 ar
    10     7    13 1
    11     4    12 1
    12    13     2 2
    13     2    12 1
    14     2     1 1
    15     1    14 1
    16     1    15 1
    17     1    16 1
    18     3    17 1
    19     5    18 1
    20     6    19 1
    21     9    20 1
    22     9    21 1
    23    10    22 1
    24    10    23 1
    25    10    24 1
@<TRIPOS>SUBSTRUCTURE
     1 A7H         1 TEMP              0 ****  ****    0 ROOT
