@<TRIPOS>MOLECULE
molecule
   48    49     1     0     0
SMALL
bcc


@<TRIPOS>ATOM
      1 C15          0.0000     0.0000     0.0000 c3         1 A7I      -0.092400
      2 C16          1.5300     0.0000     0.0000 c3         1 A7I       0.162300
      3 N17          2.0220     0.0000     1.3840 n3         1 A7I      -0.729600
      4 C20          3.4830    -0.1400     1.4240 c3         1 A7I       0.168500
      5 C22          3.9560    -0.1360     2.8780 c3         1 A7I      -0.091100
      6 C21          3.8870    -1.4570     0.7600 c3         1 A7I      -0.091100
      7 C18          1.5880     1.2060     2.1000 c3         1 A7I       0.162300
      8 C19          0.0590     1.2420     2.1630 c3         1 A7I      -0.092400
      9 C14         -0.5050     1.2420     0.7390 c3         1 A7I       0.244500
     10 N13         -1.9690     1.2170     0.7940 n7         1 A7I      -0.909100
     11 S12         -2.8240     2.6320     0.7000 s6         1 A7I       1.332900
     12 O23         -4.1830     2.2280     0.8090 o          1 A7I      -0.619800
     13 O24         -2.2270     3.4690     1.6810 o          1 A7I      -0.619800
     14 C10         -2.4790     3.2600    -0.9670 c3         1 A7I      -0.257600
     15 C9          -3.2230     4.5810    -1.1780 c3         1 A7I       0.143000
     16 N8          -2.9440     5.0870    -2.5240 ns         1 A7I      -0.581900
     17 C7          -3.4960     6.2460    -2.9360 c          1 A7I       0.706700
     18 O25         -4.2250     6.8710    -2.1890 o          1 A7I      -0.590100
     19 C3          -3.2160     6.7540    -4.2820 cc         1 A7I      -0.122700
     20 C2          -3.7140     7.9110    -4.8110 cd         1 A7I      -0.069000
     21 C1          -3.2900     8.1470    -6.0960 cd         1 A7I      -0.165000
     22 C5          -2.4720     7.2160    -6.6050 cc         1 A7I       0.057300
     23 Cl6         -1.7920     7.2680    -8.2010 cl         1 A7I      -0.046400
     24 S4          -2.1830     5.9740    -5.4710 ss         1 A7I      -0.066800
     25 H151        -0.3600     0.0170    -1.0210 hc         1 A7I       0.060700
     26 H152        -0.3610    -0.8900     0.5020 hc         1 A7I       0.060700
     27 H161         1.8900    -0.8860    -0.5090 h1         1 A7I       0.038200
     28 H162         1.8900     0.8860    -0.5090 h1         1 A7I       0.038200
     29 H14         -0.1720     2.1320     0.2190 h1         1 A7I       0.047700
     30 H20          3.9400     0.6870     0.8940 h1         1 A7I       0.021700
     31 H181         1.9880     1.1900     3.1070 h1         1 A7I       0.038200
     32 H182         1.9470     2.0840     1.5770 h1         1 A7I       0.038200
     33 H221         3.2630    -0.7070     3.4850 hc         1 A7I       0.040700
     34 H222         4.9410    -0.5820     2.9390 hc         1 A7I       0.040700
     35 H223         3.9980     0.8840     3.2420 hc         1 A7I       0.040700
     36 H211         4.8750    -1.7440     1.1000 hc         1 A7I       0.040700
     37 H212         3.8980    -1.3310    -0.3160 hc         1 A7I       0.040700
     38 H213         3.1750    -2.2290     1.0260 hc         1 A7I       0.040700
     39 H191        -0.3010     0.3690     2.6940 hc         1 A7I       0.060700
     40 H192        -0.2600     2.1410     2.6770 hc         1 A7I       0.060700
     41 H13         -2.4500     0.3490     0.9260 hn         1 A7I       0.460800
     42 H101        -2.8120     2.5370    -1.7020 h1         1 A7I       0.100200
     43 H102        -1.4140     3.4240    -1.0780 h1         1 A7I       0.100200
     44 H91C        -2.8890     5.3040    -0.4440 h1         1 A7I       0.068700
     45 H92C        -4.2880     4.4170    -1.0670 h1         1 A7I       0.068700
     46 H8          -2.3480     4.5700    -3.1400 hn         1 A7I       0.315500
     47 H2          -4.3780     8.5760    -4.2710 ha         1 A7I       0.179000
     48 H1          -3.5950     9.0220    -6.6570 ha         1 A7I       0.166000
@<TRIPOS>BOND
     1     1     2 1
     2     1     9 1
     3     2     3 1
     4     3     4 1
     5     3     7 1
     6     4     5 1
     7     4     6 1
     8     7     8 1
     9     8     9 1
    10     9    10 1
    11    10    11 1
    12    11    12 2
    13    11    13 2
    14    11    14 1
    15    14    15 1
    16    15    16 1
    17    16    17 1
    18    17    18 2
    19    17    19 1
    20    19    20 2
    21    19    24 1
    22    20    21 1
    23    21    22 2
    24    22    23 1
    25    22    24 1
    26     1    25 1
    27     1    26 1
    28     2    27 1
    29     2    28 1
    30     9    29 1
    31     4    30 1
    32     7    31 1
    33     7    32 1
    34     5    33 1
    35     5    34 1
    36     5    35 1
    37     6    36 1
    38     6    37 1
    39     6    38 1
    40     8    39 1
    41     8    40 1
    42    10    41 1
    43    14    42 1
    44    14    43 1
    45    15    44 1
    46    15    45 1
    47    16    46 1
    48    20    47 1
    49    21    48 1
@<TRIPOS>SUBSTRUCTURE
     1 A7I         1 TEMP              0 ****  ****    0 ROOT
