@<TRIPOS>MOLECULE
molecule
   37    38     1     0     0
SMALL
bcc


@<TRIPOS>ATOM
      1 C12          0.0000     0.0000     0.0000 c3         1 A7K       0.165300
      2 C13          3.5650     0.0620     1.4520 c3         1 A7K       0.147400
      3 C11          1.5300     0.0000     0.0000 c3         1 A7K      -0.075400
      4 C10          2.0350     0.0000     1.4450 c3         1 A7K      -0.073700
      5 C9           1.4710     1.2230     2.1740 c3         1 A7K      -0.075400
      6 C8          -0.0570     1.1870     2.1120 c3         1 A7K       0.165300
      7 C7          -1.5830     3.4150    -0.6860 c3         1 A7K       0.172100
      8 C4          -1.8800     1.2890     0.6130 ca         1 A7K       0.111600
      9 C5          -2.4560     2.3590    -0.0600 ca         1 A7K      -0.181300
     10 C6          -3.8320     2.4520    -0.1570 ca         1 A7K      -0.093000
     11 C3          -2.6890     0.3180     1.1890 ca         1 A7K      -0.152000
     12 C2          -4.0630     0.4170     1.0890 ca         1 A7K      -0.067000
     13 C1          -4.6330     1.4830     0.4170 ca         1 A7K      -0.119000
     14 N1          -1.0700     2.9280    -1.9720 nz         1 A7K      -0.806600
     15 N2          -0.4910     1.1890     0.7080 nh         1 A7K      -0.664000
     16 O1           4.0400    -0.0550     2.7950 oh         1 A7K      -0.607800
     17 H1          -0.3600    -0.8910     0.5010 h1         1 A7K       0.044700
     18 H2          -0.3600     0.0160    -1.0220 h1         1 A7K       0.044700
     19 H3           3.8900     1.0070     1.0350 h1         1 A7K       0.024700
     20 H4           3.9620    -0.7510     0.8570 h1         1 A7K       0.024700
     21 H5           1.8910    -0.8860    -0.5080 hc         1 A7K       0.058200
     22 H6           1.8910     0.8860    -0.5080 hc         1 A7K       0.058200
     23 H7           1.7020    -0.9020     1.9440 hc         1 A7K       0.073700
     24 H8           1.8300     2.1260     1.6950 hc         1 A7K       0.058200
     25 H9           1.7910     1.2050     3.2090 hc         1 A7K       0.058200
     26 H10         -0.4580     2.0600     2.6140 h1         1 A7K       0.044700
     27 H11         -0.4160     0.2880     2.5980 h1         1 A7K       0.044700
     28 H12         -2.1640     4.3160    -0.8460 hx         1 A7K       0.113200
     29 H13         -0.7520     3.6350    -0.0250 hx         1 A7K       0.113200
     30 H14         -4.2820     3.2860    -0.6820 ha         1 A7K       0.141000
     31 H15         -2.2430    -0.5180     1.7160 ha         1 A7K       0.158000
     32 H16         -4.6950    -0.3400     1.5370 ha         1 A7K       0.160000
     33 H17         -5.7110     1.5590     0.3400 ha         1 A7K       0.159000
     34 H18         -1.4140     2.0030    -2.1400 hn         1 A7K       0.453133
     35 H19         -0.0690     2.9130    -1.9480 hn         1 A7K       0.453133
     36 H20         -1.3770     3.5360    -2.7060 hn         1 A7K       0.453133
     37 H21          4.9710    -0.2050     2.7870 ho         1 A7K       0.415000
@<TRIPOS>BOND
     1    16     2 1
     2     2     4 1
     3     5     4 1
     4     5     6 1
     5     4     3 1
     6    14     7 1
     7     6    15 1
     8     3     1 1
     9     7     9 1
    10    15     1 1
    11    15     8 1
    12     9     8 ar
    13     9    10 ar
    14     8    11 ar
    15    10    13 ar
    16    11    12 ar
    17    13    12 ar
    18     1    17 1
    19     1    18 1
    20     2    19 1
    21     2    20 1
    22     3    21 1
    23     3    22 1
    24     4    23 1
    25     5    24 1
    26     5    25 1
    27     6    26 1
    28     6    27 1
    29     7    28 1
    30     7    29 1
    31    10    30 1
    32    11    31 1
    33    12    32 1
    34    13    33 1
    35    14    34 1
    36    14    35 1
    37    14    36 1
    38    16    37 1
@<TRIPOS>SUBSTRUCTURE
     1 A7K         1 TEMP              0 ****  ****    0 ROOT
