@<TRIPOS>MOLECULE
molecule
   28    28     1     0     0
SMALL
bcc


@<TRIPOS>ATOM
      1 C10          0.0000     0.0000     0.0000 c3         1 A7N      -0.114100
      2 C9           1.5300     0.0000     0.0000 c3         1 A7N       0.172800
      3 C8           2.5260     1.1830     3.4430 ca         1 A7N      -0.173000
      4 C7           2.0660     1.1800     2.1400 ca         1 A7N      -0.073500
      5 C4           2.9290    -1.1800     3.3010 ca         1 A7N      -0.173000
      6 C5           2.4580    -1.1800     2.0030 ca         1 A7N      -0.073500
      7 C6           2.0320     0.0000     1.4210 ca         1 A7N      -0.226300
      8 C3           2.9590     0.0020     4.0270 ca         1 A7N       0.195100
      9 C2           3.4230     1.2570     5.9920 c3         1 A7N       0.128400
     10 C1           3.9730     1.0630     7.4060 c3         1 A7N      -0.092100
     11 O1           3.4210     0.0040     5.3050 os         1 A7N      -0.306900
     12 N1           2.0190     1.1990    -0.6930 nz         1 A7N      -0.809600
     13 H1          -0.3610    -0.2900     0.9790 hc         1 A7N       0.075367
     14 H2          -0.3610     0.9930    -0.2380 hc         1 A7N       0.075367
     15 H3          -0.3610    -0.7030    -0.7410 hc         1 A7N       0.075367
     16 H4           1.8910    -0.8850    -0.5100 hx         1 A7N       0.112700
     17 H5           2.5500     2.1070     4.0070 ha         1 A7N       0.166000
     18 H6           1.7280     2.1030     1.6840 ha         1 A7N       0.128500
     19 H7           3.2640    -2.1050     3.7560 ha         1 A7N       0.166000
     20 H8           2.4350    -2.1020     1.4350 ha         1 A7N       0.128500
     21 H9           2.4110     1.6400     6.0480 h1         1 A7N       0.039700
     22 H10          4.0460     1.9620     5.4560 h1         1 A7N       0.039700
     23 H11          3.3490     0.3580     7.9430 hc         1 A7N       0.059033
     24 H12          4.9850     0.6800     7.3510 hc         1 A7N       0.059033
     25 H13          3.9750     2.0130     7.9270 hc         1 A7N       0.059033
     26 H14          3.0010     1.3020    -0.5280 hn         1 A7N       0.453467
     27 H15          1.8540     1.1060    -1.6760 hn         1 A7N       0.453467
     28 H131         1.5360     2.0040    -0.3480 hn         1 A7N       0.453467
@<TRIPOS>BOND
     1    10     9 1
     2     9    11 1
     3    11     8 1
     4     5     8 ar
     5     5     6 ar
     6     8     3 ar
     7     6     7 ar
     8     3     4 ar
     9     7     4 ar
    10     7     2 1
    11    12     2 1
    12     2     1 1
    13     1    13 1
    14     1    14 1
    15     1    15 1
    16     2    16 1
    17     3    17 1
    18     4    18 1
    19     5    19 1
    20     6    20 1
    21     9    21 1
    22     9    22 1
    23    10    23 1
    24    10    24 1
    25    10    25 1
    26    12    26 1
    27    12    27 1
    28    28    12 1
@<TRIPOS>SUBSTRUCTURE
     1 A7N         1 TEMP              0 ****  ****    0 ROOT
