@<TRIPOS>MOLECULE
molecule
   26    27     1     0     0
SMALL
bcc


@<TRIPOS>ATOM
      1 C11          0.0000     0.0000     0.0000 ca         1 A7Q       0.480200
      2 C10         -2.9060    -0.9990     2.9500 ca         1 A7Q      -0.122500
      3 C9          -4.2780    -0.8870     2.8380 ca         1 A7Q      -0.121000
      4 C8          -4.8990     0.3180     3.1090 ca         1 A7Q      -0.127000
      5 C7          -4.1500     1.4150     3.4930 ca         1 A7Q      -0.121000
      6 C4          -0.0650    -0.0060     2.3060 ca         1 A7Q       0.658600
      7 C5          -2.1510     0.1000     3.3350 ca         1 A7Q       0.109100
      8 C6          -2.7770     1.3090     3.6060 ca         1 A7Q      -0.122500
      9 C3           1.3210    -0.0120     2.3820 ca         1 A7Q      -0.269300
     10 C2           2.0600     0.0000     1.2110 ca         1 A7Q      -0.044000
     11 C1           1.3810     0.0000     0.0000 ca         1 A7Q      -0.251600
     12 O            2.3820     1.3480    -1.7120 oh         1 A7Q      -0.604800
     13 C            2.1420     0.0000    -1.3010 c3         1 A7Q       0.196700
     14 N           -0.6770    -0.0010     1.1320 nb         1 A7Q      -0.756000
     15 O1          -0.8010    -0.0070     3.4470 os         1 A7Q      -0.361400
     16 H1          -0.5350     0.0020    -0.9420 h4         1 A7Q       0.028100
     17 H3          -4.8680    -1.7440     2.5380 ha         1 A7Q       0.132500
     18 H4          -5.9760     0.4040     3.0210 ha         1 A7Q       0.130000
     19 H5          -4.6390     2.3580     3.7050 ha         1 A7Q       0.132500
     20 H6          -2.1900     2.1680     3.9070 ha         1 A7Q       0.140500
     21 H7           1.8180    -0.0140     3.3440 ha         1 A7Q       0.152000
     22 H8           3.1430    -0.0020     1.2390 ha         1 A7Q       0.145000
     23 H9           2.8600     1.3480    -2.5250 ho         1 A7Q       0.402000
     24 H10          3.0880    -0.5100    -1.1660 h1         1 A7Q       0.025700
     25 H11          1.5610    -0.5100    -2.0590 h1         1 A7Q       0.025700
     26 H2          -2.4200    -1.9430     2.7380 ha         1 A7Q       0.140500
@<TRIPOS>BOND
     1    13    12 1
     2    13    11 1
     3    11     1 ar
     4    11    10 ar
     5     1    14 ar
     6    10     9 ar
     7    14     6 ar
     8     9     6 ar
     9     6    15 1
    10    15     7 1
    11     2     7 ar
    12     2     3 ar
    13     7     8 ar
    14     3     4 ar
    15     8     5 ar
    16     4     5 ar
    17     1    16 1
    18     2    26 1
    19     3    17 1
    20     4    18 1
    21     5    19 1
    22     8    20 1
    23     9    21 1
    24    10    22 1
    25    12    23 1
    26    13    24 1
    27    13    25 1
@<TRIPOS>SUBSTRUCTURE
     1 A7Q         1 TEMP              0 ****  ****    0 ROOT
