@<TRIPOS>MOLECULE
A7S
   50    52     1     0     0
SMALL
bcc


@<TRIPOS>ATOM
      1 C1           0.0000     0.0000     0.0000 ca         1 A7S      -0.070300
      2 C2           1.3830     0.0000     0.0000 ca         1 A7S      -0.112000
      3 C3          -0.6920    -0.0020     1.1960 ca         1 A7S      -0.094000
      4 C4          -0.7530     0.0060    -1.3050 c3         1 A7S       0.054700
      5 C5           2.0730     0.0000     1.1990 ca         1 A7S       0.109900
      6 C6           1.3800    -0.0010     2.3980 ca         1 A7S      -0.110300
      7 C7          -0.0020    -0.0020     2.3940 ca         1 A7S      -0.073000
      8 C8          -7.9380     1.0780    -1.4290 c3         1 A7S      -0.048400
      9 C9          -7.9200     0.3830    -2.7920 c3         1 A7S       0.020000
     10 C10         -3.0690    -0.9360    -3.3780 ca         1 A7S       0.015600
     11 C11         -4.2010    -1.6160    -2.9520 ca         1 A7S      -0.053000
     12 C12         -3.1810     0.3560    -3.8760 ca         1 A7S      -0.087000
     13 C13         -4.4180     0.9640    -3.9460 ca         1 A7S      -0.129300
     14 C14         -5.5510     0.2840    -3.5190 ca         1 A7S      -0.055400
     15 C15         -4.5440     2.3650    -4.4840 c3         1 A7S       0.042900
     16 C16         -5.4390    -1.0090    -3.0220 ca         1 A7S      -0.141000
     17 C17          2.1310    -0.0030     3.7030 c3         1 A7S       0.067200
     18 C18         -5.8710     2.5090    -5.2300 c3         1 A7S      -0.096400
     19 C19         -6.9950     1.9700    -4.3870 c          1 A7S       0.613500
     20 C20         -9.1010     0.5370    -0.5960 c3         1 A7S       0.012900
     21 F1           3.4250     0.0000     1.2010 f          1 A7S      -0.125900
     22 N1          -6.8060     0.9020    -3.5910 n          1 A7S       0.019000
     23 N2          -1.8130    -1.5490    -3.3020 nu         1 A7S      -0.431500
     24 O1           0.1720    -2.3500    -2.1470 o          1 A7S      -0.577300
     25 O2          -8.0840     2.5030    -4.4270 o          1 A7S      -0.667500
     26 O3          -2.0220    -2.3200    -1.0040 o          1 A7S      -0.577300
     27 S           -1.0540    -1.7010    -1.8390 s6         1 A7S       0.953900
     28 H1           1.9250     0.0010    -0.9380 ha         1 A7S       0.128000
     29 H2          -1.7750    -0.0020     1.1960 ha         1 A7S       0.117000
     30 H3          -1.7000     0.5160    -1.1730 h1         1 A7S       0.072200
     31 H4          -0.1670     0.5220    -2.0570 h1         1 A7S       0.072200
     32 H5          -0.5450    -0.0030     3.3320 ha         1 A7S       0.113000
     33 H6          -7.0040     0.8870    -0.9140 hc         1 A7S       0.022200
     34 H7          -8.0600     2.1460    -1.5700 hc         1 A7S       0.022200
     35 H8          -7.7970    -0.6840    -2.6520 h1         1 A7S       0.042200
     36 H9          -8.8530     0.5750    -3.3080 h1         1 A7S       0.042200
     37 H10         -4.1140    -2.6240    -2.5640 ha         1 A7S       0.133000
     38 H11         -2.2970     0.8870    -4.2090 ha         1 A7S       0.110000
     39 H12         -4.5340     3.0600    -3.6530 hc         1 A7S       0.026700
     40 H13         -3.7320     2.5460    -5.1780 hc         1 A7S       0.026700
     41 H14         -6.3220    -1.5400    -2.6890 ha         1 A7S       0.125000
     42 H15          2.7550     0.8810     3.7620 hc         1 A7S       0.013033
     43 H16          1.4260    -0.0020     4.5260 hc         1 A7S       0.013033
     44 H17          2.7530    -0.8880     3.7620 hc         1 A7S       0.013033
     45 H18         -5.8220     1.9540    -6.1590 hc         1 A7S       0.043700
     46 H19         -6.0530     3.5570    -5.4400 hc         1 A7S       0.043700
     47 H20         -8.9500    -0.5200    -0.4100 hc         1 A7S       0.003033
     48 H21         -9.1470     1.0670     0.3470 hc         1 A7S       0.003033
     49 H22        -10.0290     0.6800    -1.1360 hc         1 A7S       0.003033
     50 H23         -1.3860    -1.9180    -4.1280 hn         1 A7S       0.352800
@<TRIPOS>BOND
     1     1     2 ar  
     2     1     3 ar  
     3     1     4 1   
     4     2     5 ar  
     5     2    28 1   
     6     3     7 ar  
     7     3    29 1   
     8     4    27 1   
     9     4    30 1   
    10     4    31 1   
    11     5     6 ar  
    12     5    21 1   
    13     6     7 ar  
    14     6    17 1   
    15     7    32 1   
    16     8     9 1   
    17     8    20 1   
    18     8    33 1   
    19     8    34 1   
    20     9    22 1   
    21     9    35 1   
    22     9    36 1   
    23    10    11 ar  
    24    10    12 ar  
    25    10    23 1   
    26    11    16 ar  
    27    11    37 1   
    28    12    13 ar  
    29    12    38 1   
    30    13    14 ar  
    31    13    15 1   
    32    14    16 ar  
    33    14    22 1   
    34    15    18 1   
    35    15    39 1   
    36    15    40 1   
    37    16    41 1   
    38    17    42 1   
    39    17    43 1   
    40    17    44 1   
    41    18    19 1   
    42    18    45 1   
    43    18    46 1   
    44    19    22 1   
    45    19    25 2   
    46    20    47 1   
    47    20    48 1   
    48    20    49 1   
    49    23    27 1   
    50    23    50 1   
    51    24    27 2   
    52    26    27 2   
@<TRIPOS>SUBSTRUCTURE
     1 A7S         1 TEMP              0 ****  ****    0 ROOT
