@<TRIPOS>MOLECULE
molecule
   82    87     1     0     0
SMALL
bcc


@<TRIPOS>ATOM
      1 O26          0.0000     0.0000     0.0000 o          1 A7T      -0.594100
      2 C23          1.2170     0.0000     0.0000 c          1 A7T       0.682300
      3 N27          1.8900     0.0000     1.1670 n          1 A7T      -0.462800
      4 C32          1.1650    -0.1390     2.4320 c3         1 A7T       0.154300
      5 C36          1.1020    -1.5950     2.8180 ca         1 A7T      -0.095300
      6 C38          1.5780    -2.5610     1.9510 ca         1 A7T      -0.118000
      7 C41          1.5200    -3.8960     2.3050 ca         1 A7T      -0.130000
      8 C42          0.9880    -4.2640     3.5270 ca         1 A7T      -0.127000
      9 C39          0.5120    -3.2990     4.3930 ca         1 A7T      -0.080300
     10 C43         -0.0680    -3.7010     5.7240 c3         1 A7T      -0.045800
     11 C37          0.5750    -1.9630     4.0420 ca         1 A7T      -0.080300
     12 C40          0.0630    -0.9100     4.9900 c3         1 A7T      -0.051800
     13 C31          3.3490     0.1400     1.1730 cx         1 A7T       0.011700
     14 C35          4.0180     0.5210     2.4940 cx         1 A7T      -0.149400
     15 C34          3.9240     1.5450     1.3610 cx         1 A7T      -0.149400
     16 C21          1.9490    -0.0070    -1.2670 ce         1 A7T      -0.182400
     17 C24          3.4560    -0.0140    -1.2390 c3         1 A7T       0.170700
     18 N28          3.9660     0.5220    -2.5110 n7         1 A7T      -0.795200
     19 C29          3.9170    -1.4770    -1.1180 c3         1 A7T       0.104800
     20 N33          3.2970    -2.2370    -2.2160 n7         1 A7T      -0.802200
     21 C30          3.7270    -1.7150    -3.5190 c3         1 A7T       0.121800
     22 C25          3.4160    -0.2320    -3.6420 c3         1 A7T       0.163500
     23 C22          1.9200     0.0230    -3.7630 c3         1 A7T      -0.022200
     24 C20          1.2600    -0.0120    -2.4140 cf         1 A7T       0.061600
     25 C19         -0.2090    -0.0490    -2.3510 ca         1 A7T      -0.099800
     26 C17         -0.9600     1.0350    -2.8210 ca         1 A7T      -0.046500
     27 C15         -2.3340     0.9950    -2.7610 ca         1 A7T      -0.196500
     28 C18         -0.8610    -1.1710    -1.8260 ca         1 A7T      -0.046500
     29 C16         -2.2360    -1.2010    -1.7710 ca         1 A7T      -0.196500
     30 C14         -2.9770    -0.1190    -2.2340 ca         1 A7T       0.148100
     31 O13         -4.3320    -0.1530    -2.1750 os         1 A7T      -0.320900
     32 C12         -4.9290    -1.3280    -1.6220 c3         1 A7T       0.143400
     33 C8          -6.4520    -1.1830    -1.6400 c3         1 A7T       0.145400
     34 O5          -6.9100    -1.1290    -2.9930 os         1 A7T      -0.326900
     35 C3          -8.2490    -1.0000    -3.1870 ca         1 A7T       0.117100
     36 C6          -8.8210     0.2610    -3.2760 ca         1 A7T       0.018400
     37 Cl9         -7.8260     1.6780    -3.1400 cl         1 A7T      -0.082400
     38 C10        -10.1830     0.3880    -3.4730 ca         1 A7T      -0.116500
     39 C7         -10.9760    -0.7390    -3.5820 ca         1 A7T      -0.072300
     40 C11        -12.4600    -0.5960    -3.7960 c3         1 A7T      -0.046800
     41 C4         -10.4090    -1.9970    -3.4930 ca         1 A7T      -0.116500
     42 C2          -9.0460    -2.1300    -3.3010 ca         1 A7T       0.018400
     43 Cl1         -8.3340    -3.7100    -3.1980 cl         1 A7T      -0.082400
     44 H32          1.6790     0.4180     3.2060 h1         1 A7T       0.072700
     45 H32A         0.1600     0.2480     2.3160 h1         1 A7T       0.072700
     46 H38          1.9950    -2.2720     0.9940 ha         1 A7T       0.138000
     47 H41          1.8930    -4.6530     1.6260 ha         1 A7T       0.126000
     48 H42          0.9430    -5.3110     3.8040 ha         1 A7T       0.128000
     49 H43          0.4660    -3.1950     6.5190 hc         1 A7T       0.042367
     50 H43A        -1.1150    -3.4250     5.7600 hc         1 A7T       0.042367
     51 H43B         0.0270    -4.7730     5.8510 hc         1 A7T       0.042367
     52 H40         -0.4310    -0.1270     4.4270 hc         1 A7T       0.044367
     53 H40A        -0.6410    -1.3580     5.6810 hc         1 A7T       0.044367
     54 H40B         0.8930    -0.4880     5.5430 hc         1 A7T       0.044367
     55 H31          3.9390    -0.5100     0.5370 h1         1 A7T       0.117700
     56 H35          5.0010     0.0960     2.6600 hc         1 A7T       0.082700
     57 H35A         3.3460     0.6830     3.3280 hc         1 A7T       0.082700
     58 H34          3.1950     2.3330     1.5030 hc         1 A7T       0.082700
     59 H34A         4.8490     1.7470     0.8350 hc         1 A7T       0.082700
     60 H24          3.8240     0.5710    -0.4040 h1         1 A7T       0.116700
     61 HN28         4.9650     0.4590    -2.5230 hn         1 A7T       0.350800
     62 H29          3.5980    -1.8840    -0.1670 h1         1 A7T       0.040200
     63 H29A         4.9960    -1.5270    -1.2020 h1         1 A7T       0.040200
     64 HN33         3.5550    -3.2010    -2.1410 hn         1 A7T       0.354800
     65 H30          4.7950    -1.8630    -3.6260 h1         1 A7T       0.035200
     66 H30A         3.2080    -2.2520    -4.3040 h1         1 A7T       0.035200
     67 H25          3.8890     0.1320    -4.5460 h1         1 A7T       0.058700
     68 H22          1.7610     0.9970    -4.2100 hc         1 A7T       0.065200
     69 H22A         1.4800    -0.7390    -4.3930 hc         1 A7T       0.065200
     70 H17         -0.4600     1.9040    -3.2320 ha         1 A7T       0.132500
     71 H15         -2.9160     1.8340    -3.1220 ha         1 A7T       0.134500
     72 H18         -0.2850    -2.0150    -1.4660 ha         1 A7T       0.132500
     73 H16         -2.7420    -2.0680    -1.3630 ha         1 A7T       0.134500
     74 H12         -4.5910    -1.4590    -0.6010 h1         1 A7T       0.049700
     75 H12A        -4.6420    -2.1910    -2.2110 h1         1 A7T       0.049700
     76 H8          -6.7350    -0.2720    -1.1260 h1         1 A7T       0.045700
     77 H8A         -6.9020    -2.0330    -1.1410 h1         1 A7T       0.045700
     78 H10        -10.6300     1.3720    -3.5420 ha         1 A7T       0.149500
     79 H11        -12.7110    -0.9020    -4.8050 hc         1 A7T       0.048367
     80 H11A       -12.7490     0.4380    -3.6510 hc         1 A7T       0.048367
     81 H11B       -12.9900    -1.2220    -3.0870 hc         1 A7T       0.048367
     82 H4         -11.0320    -2.8790    -3.5810 ha         1 A7T       0.149500
@<TRIPOS>BOND
     1     2     1 2
     2     3     2 1
     3     2    16 1
     4    13     3 1
     5     4     3 1
     6     4     5 1
     7     4    44 1
     8     4    45 1
     9    11     5 ar
    10     5     6 ar
    11     6     7 ar
    12     6    46 1
    13     8     7 ar
    14     7    47 1
    15     9     8 ar
    16     8    48 1
    17    11     9 ar
    18    10     9 1
    19    10    49 1
    20    10    50 1
    21    10    51 1
    22    12    11 1
    23    12    52 1
    24    12    53 1
    25    12    54 1
    26    13    15 1
    27    13    14 1
    28    13    55 1
    29    15    14 1
    30    14    56 1
    31    14    57 1
    32    15    58 1
    33    15    59 1
    34    24    16 2
    35    16    17 1
    36    17    18 1
    37    17    19 1
    38    17    60 1
    39    22    18 1
    40    18    61 1
    41    20    19 1
    42    19    62 1
    43    19    63 1
    44    21    20 1
    45    20    64 1
    46    22    21 1
    47    21    65 1
    48    21    66 1
    49    23    22 1
    50    22    67 1
    51    24    23 1
    52    23    68 1
    53    23    69 1
    54    25    24 1
    55    28    25 ar
    56    26    25 ar
    57    27    26 ar
    58    26    70 1
    59    30    27 ar
    60    27    71 1
    61    29    28 ar
    62    28    72 1
    63    30    29 ar
    64    29    73 1
    65    31    30 1
    66    32    31 1
    67    33    32 1
    68    32    74 1
    69    32    75 1
    70    33    34 1
    71    33    76 1
    72    33    77 1
    73    34    35 1
    74    42    35 ar
    75    35    36 ar
    76    36    38 ar
    77    36    37 1
    78    39    38 ar
    79    38    78 1
    80    41    39 ar
    81    40    39 1
    82    40    79 1
    83    40    80 1
    84    40    81 1
    85    42    41 ar
    86    41    82 1
    87    43    42 1
@<TRIPOS>SUBSTRUCTURE
     1 A7T         1 TEMP              0 ****  ****    0 ROOT
