@<TRIPOS>MOLECULE
molecule
   20    21     1     0     0
SMALL
bcc


@<TRIPOS>ATOM
      1 C1           0.0000     0.0000     0.0000 ca         1 A7W      -0.115000
      2 C2           1.3620     0.0000     0.0000 ca         1 A7W      -0.124000
      3 C3          -0.7160    -0.0000     1.1930 ca         1 A7W      -0.145000
      4 C4           3.4700    -0.0010     1.2500 ca         1 A7W      -0.114000
      5 C5           3.3170    -0.0040     3.6400 ca         1 A7W       0.405200
      6 C6           2.0630     0.0000     1.2180 ca         1 A7W      -0.137300
      7 C7           1.3470    -0.0010     2.4400 ca         1 A7W       0.388600
      8 C8          -0.0650    -0.0010     2.4080 ca         1 A7W       0.137300
      9 C9           4.0870    -0.0020     2.4720 ca         1 A7W      -0.020200
     10 N10          2.0080    -0.0020     3.6010 nb         1 A7W      -0.652000
     11 N11         -0.7950    -0.0010     3.5960 nv         1 A7W      -0.975200
     12 O12          5.4440    -0.0020     2.5510 oh         1 A7W      -0.518100
     13 H1          -0.5340     0.0000    -0.9430 ha         1 A7W       0.131000
     14 H2           1.9050     0.0000    -0.9380 ha         1 A7W       0.134000
     15 H3          -1.7990    -0.0000     1.1660 ha         1 A7W       0.140000
     16 H4           4.0480     0.0000     0.3340 ha         1 A7W       0.149000
     17 H5           3.8170    -0.0050     4.6010 h4         1 A7W       0.030100
     18 H111        -1.0690    -0.8680     4.0140 hn         1 A7W       0.432300
     19 H112        -1.0680     0.8660     4.0150 hn         1 A7W       0.432300
     20 H12          5.7590     0.8870     2.5570 ho         1 A7W       0.420000
@<TRIPOS>BOND
     1     1     2 ar
     2     1     3 ar
     3     2     6 ar
     4     3     8 ar
     5     4     6 ar
     6     4     9 ar
     7     5     9 ar
     8     5    10 ar
     9     6     7 ar
    10     7     8 ar
    11     7    10 ar
    12     8    11 1
    13     9    12 1
    14     1    13 1
    15     2    14 1
    16     3    15 1
    17     4    16 1
    18     5    17 1
    19    11    18 1
    20    11    19 1
    21    12    20 1
@<TRIPOS>SUBSTRUCTURE
     1 A7W         1 TEMP              0 ****  ****    0 ROOT
