@<TRIPOS>MOLECULE
A7Y
   63    67     1     0     0
SMALL
bcc


@<TRIPOS>ATOM
      1 C2           0.0000     0.0000     0.0000 ca         1 A7Y      -0.032600
      2 C3           1.3830     0.0000     0.0000 ca         1 A7Y      -0.099500
      3 C41          2.0250     8.2510     8.8730 cp         1 A7Y      -0.119500
      4 C42          1.5510     9.1270     9.8480 ca         1 A7Y      -0.105000
      5 C44          1.0060    10.3450     9.4740 ca         1 A7Y       0.146100
      6 C45          0.9340    10.6900     8.1320 ca         1 A7Y      -0.203000
      7 C47          1.4040     9.8220     7.1640 ca         1 A7Y      -0.059000
      8 C49          1.9540     8.6100     7.5280 ca         1 A7Y      -0.142000
      9 C52         -0.0070    12.4390     9.9650 c3         1 A7Y       0.243700
     10 C56          3.2360     5.1450    12.3240 ca         1 A7Y      -0.144300
     11 C58          3.7560     3.9510    12.7160 ca         1 A7Y      -0.090000
     12 C60          4.2500     3.0400    11.7840 ca         1 A7Y      -0.095000
     13 C12          2.1370    -0.0020     3.7000 c3         1 A7Y       0.212100
     14 C16          2.9030     1.4280     5.5080 c3         1 A7Y       0.128800
     15 C19          3.8880     2.6100     5.5800 c3         1 A7Y       0.012700
     16 C21          3.9120     3.2040     4.1530 c3         1 A7Y      -0.046400
     17 C24          3.4200     2.0230     3.2780 c3         1 A7Y       0.145800
     18 C10         -0.6910    -0.0010     1.1980 ca         1 A7Y      -0.099500
     19 C34          3.6440     4.8650     8.6290 ca         1 A7Y      -0.095600
     20 C35          3.6860     4.5380    10.0090 ca         1 A7Y      -0.112300
     21 C36          3.1880     5.4700    10.9540 ca         1 A7Y       0.371600
     22 C38          2.6090     6.9470     9.2650 cp         1 A7Y       0.436800
     23 C39          3.0810     6.0800     8.2680 ca         1 A7Y      -0.203300
     24 C5           2.0740     0.0000     1.1970 ca         1 A7Y      -0.079500
     25 C62          4.2250     3.3220    10.4510 ca         1 A7Y      -0.084000
     26 C7           1.3840    -0.0020     2.3940 ca         1 A7Y      -0.092300
     27 C8           0.0010    -0.0020     2.3950 ca         1 A7Y      -0.079500
     28 N15          2.3820     1.3830     4.1250 n3         1 A7Y      -0.541600
     29 N37          2.6720     6.6290    10.5430 nb         1 A7Y      -0.543000
     30 O33          5.2790     3.4580     7.7310 o          1 A7Y      -0.643100
     31 O51          0.5420    11.2010    10.4220 os         1 A7Y      -0.305900
     32 Cl1         -0.8680     0.0080    -1.5030 cl         1 A7Y      -0.028400
     33 H1           1.9250     0.0010    -0.9380 ha         1 A7Y       0.115000
     34 H2           1.6050     8.8550    10.8950 ha         1 A7Y       0.138000
     35 H3           0.5060    11.6420     7.8410 ha         1 A7Y       0.120000
     36 H4           1.3480    10.0970     6.1180 ha         1 A7Y       0.101000
     37 H5           2.3210     7.9320     6.7670 ha         1 A7Y       0.108000
     38 H6          -0.3370    13.0230    10.8150 h1         1 A7Y      -0.002633
     39 H7           0.7500    12.9900     9.4200 h1         1 A7Y      -0.002633
     40 H8          -0.8500    12.2420     9.3130 h1         1 A7Y      -0.002633
     41 H9           2.8560     5.8420    13.0610 ha         1 A7Y       0.118000
     42 H10          3.7870     3.7040    13.7710 ha         1 A7Y       0.103000
     43 H11          4.6590     2.0960    12.1230 ha         1 A7Y       0.104000
     44 H12          1.5510    -0.5130     4.4550 h1         1 A7Y       0.015700
     45 H13          3.0840    -0.5130     3.5700 h1         1 A7Y       0.015700
     46 H14          2.0880     1.5850     6.2040 h1         1 A7Y       0.022700
     47 H15          3.4200     0.5040     5.7370 h1         1 A7Y       0.022700
     48 H16          4.8750     2.2580     5.8550 h1         1 A7Y       0.074700
     49 H17          3.2310     4.0440     4.0770 hc         1 A7Y       0.031200
     50 H18          4.9190     3.4910     3.8760 hc         1 A7Y       0.031200
     51 H19          4.2310     1.3320     3.0810 h1         1 A7Y       0.020700
     52 H20          2.9870     2.3880     2.3540 h1         1 A7Y       0.020700
     53 H21          1.6010     4.3440     7.2880 h1         1 A7Y       0.022367
     54 H22          1.4940     3.7060     5.6410 h1         1 A7Y       0.022367
     55 H23          2.3070     5.2480     5.9410 h1         1 A7Y       0.022367
     56 H24         -1.7750    -0.0010     1.1990 ha         1 A7Y       0.115000
     57 H25          3.1310     6.4150     7.2390 ha         1 A7Y       0.132000
     58 H26          3.1580    -0.0000     1.1970 ha         1 A7Y       0.109500
     59 H27          4.6120     2.6060     9.7360 ha         1 A7Y       0.132000
     60 H28         -0.5400    -0.0030     3.3340 ha         1 A7Y       0.109500
     61 N27          3.4120     3.6100     6.5390 n          1 A7Y      -0.136800
     62 C28          2.1140     4.2590     6.3370 c3         1 A7Y       0.051300
     63 C32          4.1670     3.9330     7.6070 c          1 A7Y       0.611700
@<TRIPOS>BOND
     1     1     2 ar  
     2     1    18 ar  
     3     1    32 1   
     4     2    24 ar  
     5     2    33 1   
     6     3     4 ar  
     7     3     8 ar  
     8     3    22 1   
     9     4     5 ar  
    10     4    34 1   
    11     5     6 ar  
    12     5    31 1   
    13     6     7 ar  
    14     6    35 1   
    15     7     8 ar  
    16     7    36 1   
    17     8    37 1   
    18     9    31 1   
    19     9    38 1   
    20     9    39 1   
    21     9    40 1   
    22    10    11 ar  
    23    10    21 ar  
    24    10    41 1   
    25    11    12 ar  
    26    11    42 1   
    27    12    25 ar  
    28    12    43 1   
    29    13    26 1   
    30    13    28 1   
    31    13    44 1   
    32    13    45 1   
    33    14    15 1   
    34    14    28 1   
    35    14    46 1   
    36    14    47 1   
    37    15    16 1   
    38    15    48 1   
    39    15    61 1   
    40    16    17 1   
    41    16    49 1   
    42    16    50 1   
    43    17    28 1   
    44    17    51 1   
    45    17    52 1   
    46    18    27 ar  
    47    18    56 1   
    48    19    20 ar  
    49    19    23 ar  
    50    19    63 1   
    51    20    21 ar  
    52    20    25 ar  
    53    21    29 ar  
    54    22    23 ar  
    55    22    29 ar  
    56    23    57 1   
    57    24    26 ar  
    58    24    58 1   
    59    25    59 1   
    60    26    27 ar  
    61    27    60 1   
    62    30    63 2   
    63    53    62 1   
    64    54    62 1   
    65    55    62 1   
    66    61    62 1   
    67    61    63 1   
@<TRIPOS>SUBSTRUCTURE
     1 A7Y         1 TEMP              0 ****  ****    0 ROOT
