@<TRIPOS>MOLECULE
molecule
   63    67     1     0     0
SMALL
bcc


@<TRIPOS>ATOM
      1 C2           0.0000     0.0000     0.0000 ca         1 A7Y       0.030400
      2 C3           1.3830     0.0000     0.0000 ca         1 A7Y      -0.122500
      3 C41          2.0250     8.2510     8.8730 cp         1 A7Y      -0.117500
      4 C42          1.5510     9.1270     9.8480 ca         1 A7Y      -0.115000
      5 C44          1.0060    10.3450     9.4740 ca         1 A7Y       0.134100
      6 C45          0.9340    10.6900     8.1320 ca         1 A7Y      -0.211000
      7 C47          1.4040     9.8220     7.1640 ca         1 A7Y      -0.095000
      8 C49          1.9540     8.6100     7.5280 ca         1 A7Y      -0.155000
      9 C52         -0.0070    12.4390     9.9650 c3         1 A7Y       0.128700
     10 C56          3.2360     5.1450    12.3240 ca         1 A7Y      -0.167300
     11 C58          3.7560     3.9510    12.7160 ca         1 A7Y      -0.116000
     12 C60          4.2500     3.0400    11.7840 ca         1 A7Y      -0.125000
     13 C12          2.1370    -0.0020     3.7000 c3         1 A7Y       0.199100
     14 C16          2.9030     1.4280     5.5080 c3         1 A7Y       0.126800
     15 C19          3.8880     2.6100     5.5800 c3         1 A7Y       0.103700
     16 C21          3.9120     3.2040     4.1530 c3         1 A7Y      -0.099400
     17 C24          3.4200     2.0230     3.2780 c3         1 A7Y       0.140800
     18 C10         -0.6910    -0.0010     1.1980 ca         1 A7Y      -0.122500
     19 C34          3.6440     4.8650     8.6290 ca         1 A7Y      -0.085600
     20 C35          3.6860     4.5380    10.0090 ca         1 A7Y      -0.125300
     21 C36          3.1880     5.4700    10.9540 ca         1 A7Y       0.424600
     22 C38          2.6090     6.9470     9.2650 cp         1 A7Y       0.490800
     23 C39          3.0810     6.0800     8.2680 ca         1 A7Y      -0.223300
     24 C5           2.0740     0.0000     1.1970 ca         1 A7Y      -0.108000
     25 C62          4.2250     3.3220    10.4510 ca         1 A7Y      -0.103000
     26 C7           1.3840    -0.0020     2.3940 ca         1 A7Y      -0.078300
     27 C8           0.0010    -0.0020     2.3950 ca         1 A7Y      -0.108000
     28 N15          2.3820     1.3830     4.1250 n3         1 A7Y      -0.704600
     29 N37          2.6720     6.6290    10.5430 nb         1 A7Y      -0.669000
     30 O33          5.2790     3.4580     7.7310 o          1 A7Y      -0.601100
     31 O51          0.5420    11.2010    10.4220 os         1 A7Y      -0.325900
     32 Cl1         -0.8680     0.0080    -1.5030 cl         1 A7Y      -0.110400
     33 H1           1.9250     0.0010    -0.9380 ha         1 A7Y       0.144500
     34 H2           1.6050     8.8550    10.8950 ha         1 A7Y       0.169000
     35 H3           0.5060    11.6420     7.8410 ha         1 A7Y       0.135000
     36 H4           1.3480    10.0970     6.1180 ha         1 A7Y       0.132000
     37 H5           2.3210     7.9320     6.7670 ha         1 A7Y       0.129000
     38 H6          -0.3370    13.0230    10.8150 h1         1 A7Y       0.041367
     39 H7           0.7500    12.9900     9.4200 h1         1 A7Y       0.041367
     40 H8          -0.8500    12.2420     9.3130 h1         1 A7Y       0.041367
     41 H9           2.8560     5.8420    13.0610 ha         1 A7Y       0.150000
     42 H10          3.7870     3.7040    13.7710 ha         1 A7Y       0.134000
     43 H11          4.6590     2.0960    12.1230 ha         1 A7Y       0.134000
     44 H12          1.5510    -0.5130     4.4550 h1         1 A7Y       0.044200
     45 H13          3.0840    -0.5130     3.5700 h1         1 A7Y       0.044200
     46 H14          2.0880     1.5850     6.2040 h1         1 A7Y       0.051700
     47 H15          3.4200     0.5040     5.7370 h1         1 A7Y       0.051700
     48 H16          4.8750     2.2580     5.8550 h1         1 A7Y       0.098700
     49 H17          3.2310     4.0440     4.0770 hc         1 A7Y       0.061200
     50 H18          4.9190     3.4910     3.8760 hc         1 A7Y       0.061200
     51 H19          4.2310     1.3320     3.0810 h1         1 A7Y       0.048200
     52 H20          2.9870     2.3880     2.3540 h1         1 A7Y       0.048200
     53 H21          1.6010     4.3440     7.2880 h1         1 A7Y       0.048367
     54 H22          1.4940     3.7060     5.6410 h1         1 A7Y       0.048367
     55 H23          2.3070     5.2480     5.9410 h1         1 A7Y       0.048367
     56 H24         -1.7750    -0.0010     1.1990 ha         1 A7Y       0.144500
     57 H25          3.1310     6.4150     7.2390 ha         1 A7Y       0.149000
     58 H26          3.1580    -0.0000     1.1970 ha         1 A7Y       0.138000
     59 H27          4.6120     2.6060     9.7360 ha         1 A7Y       0.156000
     60 H28         -0.5400    -0.0030     3.3340 ha         1 A7Y       0.138000
     61 N27          3.4120     3.6100     6.5390 n          1 A7Y      -0.479800
     62 C28          2.1140     4.2590     6.3370 c3         1 A7Y       0.083300
     63 C32          4.1670     3.9330     7.6070 c          1 A7Y       0.676700
@<TRIPOS>BOND
     1     9    31 1
     2    32     1 1
     3    31     5 1
     4     1    18 ar
     5     1     2 ar
     6     6     5 ar
     7     6     7 ar
     8     5     4 ar
     9    18    27 ar
    10     2    24 ar
    11     7     8 ar
    12     4     3 ar
    13    27    26 ar
    14    24    26 ar
    15     8     3 ar
    16     3    22 1
    17    26    13 1
    18    22    23 ar
    19    22    29 ar
    20    23    19 ar
    21    13    28 1
    22    14    28 1
    23    14    15 1
    24    30    63 2
    25    28    17 1
    26    29    21 ar
    27    63    19 1
    28    63    61 1
    29    19    20 ar
    30    62    61 1
    31    61    15 1
    32    15    16 1
    33    21    20 ar
    34    21    10 ar
    35    20    25 ar
    36    17    16 1
    37    10    11 ar
    38    25    12 ar
    39    11    12 ar
    40     2    33 1
    41     4    34 1
    42     6    35 1
    43     7    36 1
    44     8    37 1
    45     9    38 1
    46     9    39 1
    47     9    40 1
    48    10    41 1
    49    11    42 1
    50    12    43 1
    51    13    44 1
    52    13    45 1
    53    14    46 1
    54    14    47 1
    55    15    48 1
    56    16    49 1
    57    16    50 1
    58    17    51 1
    59    17    52 1
    60    62    53 1
    61    62    54 1
    62    62    55 1
    63    18    56 1
    64    23    57 1
    65    24    58 1
    66    25    59 1
    67    27    60 1
@<TRIPOS>SUBSTRUCTURE
     1 A7Y         1 TEMP              0 ****  ****    0 ROOT
