@<TRIPOS>MOLECULE
molecule
   42    44     1     0     0
SMALL
bcc


@<TRIPOS>ATOM
      1 S            0.0000     0.0000     0.0000 s6         1 A7Z       1.744200
      2 O2           1.4210     0.0000     0.0000 o          1 A7Z      -0.623300
      3 O3          -0.7780     0.0000     1.1890 o          1 A7Z      -0.623300
      4 O1          -0.4290     1.2250    -0.7950 os         1 A7Z      -0.462800
      5 C16          0.4240     1.5600    -1.7980 ca         1 A7Z       0.075100
      6 C15          0.2460     1.0260    -3.0670 ca         1 A7Z      -0.111500
      7 C14          1.1090     1.3640    -4.0860 ca         1 A7Z      -0.107500
      8 C23          1.4680     2.4430    -1.5520 ca         1 A7Z      -0.111500
      9 C24          2.3330     2.7900    -2.5670 ca         1 A7Z      -0.107500
     10 C13          2.1640     2.2450    -3.8420 ca         1 A7Z       0.013000
     11 C8           3.0870     2.6140    -4.9330 cc         1 A7Z      -0.185600
     12 NZ           3.5310     3.8780    -5.2470 na         1 A7Z      -0.176900
     13 C9           3.1740     5.1210    -4.5590 c3         1 A7Z       0.131400
     14 C10          4.0590     5.3090    -3.3980 c1         1 A7Z      -0.193100
     15 C11          4.7710     5.4400    -2.4740 c1         1 A7Z      -0.095500
     16 C12          4.3610     3.7600    -6.3150 cd         1 A7Z       0.412400
     17 N1           4.4460     2.5060    -6.6620 nc         1 A7Z      -0.680000
     18 C7           3.6850     1.7580    -5.8400 cc         1 A7Z       0.398800
     19 C3           3.5130     0.2880    -5.9020 ca         1 A7Z      -0.118500
     20 C2           3.4990    -0.3630    -7.1350 ca         1 A7Z      -0.159000
     21 C4           3.3700    -0.4490    -4.7270 ca         1 A7Z      -0.171000
     22 C5           3.2100    -1.8180    -4.7880 ca         1 A7Z      -0.095000
     23 C6           3.1900    -2.4630    -6.0110 ca         1 A7Z      -0.176000
     24 C1           3.3370    -1.7370    -7.1850 ca         1 A7Z       0.185100
     25 OZ           3.3170    -2.3740    -8.3860 os         1 A7Z      -0.374900
     26 CZ           3.1390    -3.7920    -8.3640 c3         1 A7Z      -0.415300
     27 H3          -0.5730     0.3420    -3.2560 ha         1 A7Z       0.152000
     28 H4           0.9690     0.9460    -5.0750 ha         1 A7Z       0.158500
     29 H5           1.6010     2.8620    -0.5620 ha         1 A7Z       0.152000
     30 H6           3.1470     3.4790    -2.3730 ha         1 A7Z       0.158500
     31 H7           3.0970     5.9240    -5.2810 h1         1 A7Z       0.083700
     32 H8           2.2220     4.9950    -4.0570 h1         1 A7Z       0.083700
     33 H9           5.4300     5.5800    -1.6260 ha         1 A7Z       0.175500
     34 H10          4.6170     4.5220    -7.0410 h5         1 A7Z       0.072100
     35 H11          3.1110     0.4930    -7.6750 ha         1 A7Z       0.163000
     36 H12          2.9090     0.2010    -3.9940 ha         1 A7Z       0.139000
     37 H13          3.0260    -2.3270    -3.8490 ha         1 A7Z       0.135000
     38 H14          3.2290    -3.5440    -6.0720 ha         1 A7Z       0.177000
     39 H15          2.1800    -3.3570    -8.6160 h1         1 A7Z       0.219033
     40 H16          4.0600    -3.5450    -8.8790 h1         1 A7Z       0.219033
     41 H17          3.2980    -4.4960    -9.1720 h1         1 A7Z       0.219033
     42 F1          -0.4540    -1.2960    -0.8410 f          1 A7Z      -0.280900
@<TRIPOS>BOND
     1    22    23 ar
     2    22    21 ar
     3    23    24 ar
     4    26    25 1
     5    21    19 ar
     6    24    25 1
     7    24    20 ar
     8    20    19 ar
     9    19    18 1
    10    17    18 1
    11    17    16 2
    12    18    11 2
    13    16    12 1
    14    11    12 1
    15    11    10 1
    16    12    13 1
    17     9    10 ar
    18     9     8 ar
    19    10     7 ar
    20     8     5 ar
    21     7     6 ar
    22    13    14 1
    23     5     6 ar
    24     5     4 1
    25    14    15 3
    26     4     1 1
    27     2     1 2
    28     1     3 2
    29     6    27 1
    30     7    28 1
    31     8    29 1
    32     9    30 1
    33    13    31 1
    34    13    32 1
    35    15    33 1
    36    16    34 1
    37    20    35 1
    38    21    36 1
    39    22    37 1
    40    23    38 1
    41    26    39 1
    42    26    40 1
    43    26    41 1
    44     1    42 1
@<TRIPOS>SUBSTRUCTURE
     1 A7Z         1 TEMP              0 ****  ****    0 ROOT
