@<TRIPOS>MOLECULE
A80
   50    52     1     0     0
SMALL
bcc


@<TRIPOS>ATOM
      1 C1           0.0000     0.0000     0.0000 c3         1 A80      -0.004700
      2 C2           1.5280     0.0000     0.0000 c3         1 A80      -0.027400
      3 C3           2.0110     0.0000     1.4550 c3         1 A80      -0.028400
      4 C4           1.6910     1.3610     2.0690 c3         1 A80      -0.001700
      5 C5           0.2460     1.7190     1.8400 ca         1 A80      -0.097300
      6 C6          -0.3040     2.7200     2.6310 ca         1 A80      -0.091000
      7 C7          -1.6200     3.1000     2.4700 ca         1 A80      -0.108000
      8 C8          -2.4020     2.4770     1.5080 ca         1 A80      -0.062400
      9 C9          -1.8540     1.4770     0.7200 ca         1 A80      -0.155000
     10 C10         -0.5300     1.0960     0.8860 ca         1 A80      -0.050300
     11 N11         -3.7380     2.8540     1.3340 ns         1 A80      -0.055100
     12 C12         -4.1070     4.1350     1.5350 c          1 A80       0.603700
     13 C13         -5.5360     4.5120     1.4660 ca         1 A80      -0.206600
     14 C14         -5.9170     5.8400     1.6740 ca         1 A80      -0.092000
     15 C15         -7.2490     6.1910     1.6100 ca         1 A80      -0.088000
     16 C16         -8.2150     5.2210     1.3380 ca         1 A80      -0.068600
     17 C17         -7.8330     3.8940     1.1300 ca         1 A80      -0.088000
     18 C18         -6.5010     3.5440     1.1890 ca         1 A80      -0.092000
     19 C19         -9.6440     5.5980     1.2710 c          1 A80       0.968200
     20 C20         -0.5030    -1.3510     0.5120 c3         1 A80       0.001900
     21 C21         -0.5040     0.2180    -1.4280 c3         1 A80       0.001900
     22 C22          1.9670     1.3130     3.5730 c3         1 A80       0.001900
     23 C23          2.5830     2.4260     1.4280 c3         1 A80       0.001900
     24 O24         -3.2650     4.9800     1.7720 o          1 A80      -0.659100
     25 O25        -10.5760     4.6620     1.0080 o          1 A80      -0.878300
     26 O26         -9.9760     6.7520     1.4520 o          1 A80      -0.878300
     27 H2           1.8910    -0.8870    -0.5040 hc         1 A80       0.020200
     28 H21          1.8910     0.8870    -0.5040 hc         1 A80       0.020200
     29 H3           1.4790    -0.7680     2.0040 hc         1 A80       0.020700
     30 H4           3.0840    -0.1500     1.4710 hc         1 A80       0.020700
     31 H6           0.3070     3.2060     3.3820 ha         1 A80       0.108000
     32 H7          -2.0400     3.8820     3.0910 ha         1 A80       0.145000
     33 H9          -2.4630     0.9900    -0.0320 ha         1 A80       0.114000
     34 H11         -4.4140     2.1790     1.0370 hn         1 A80       0.180500
     35 H14         -5.1640     6.5990     1.8460 ha         1 A80       0.094500
     36 H15         -7.5450     7.2200     1.7710 ha         1 A80       0.129000
     37 H17         -8.5860     3.1340     0.9600 ha         1 A80       0.129000
     38 H18         -6.2040     2.5160     1.0220 ha         1 A80       0.094500
     39 H201        -1.4860    -1.5500     0.1010 hc         1 A80       0.006867
     40 H202         0.1810    -2.1320     0.2040 hc         1 A80       0.006867
     41 H203        -0.5620    -1.3290     1.5940 hc         1 A80       0.006867
     42 H211        -0.3800     1.2590    -1.7000 hc         1 A80       0.006867
     43 H212         0.0640    -0.4030    -2.1100 hc         1 A80       0.006867
     44 H213        -1.5520    -0.0490    -1.4860 hc         1 A80       0.006867
     45 H221         1.1760     0.7620     4.0680 hc         1 A80       0.006367
     46 H222         2.9150     0.8200     3.7510 hc         1 A80       0.006367
     47 H223         2.0040     2.3220     3.9660 hc         1 A80       0.006367
     48 H231         2.6880     3.2650     2.1050 hc         1 A80       0.006367
     49 H232         3.5590     2.0040     1.2220 hc         1 A80       0.006367
     50 H233         2.1330     2.7640     0.5020 hc         1 A80       0.006367
@<TRIPOS>BOND
     1     1     2 1   
     2     1    10 1   
     3     1    20 1   
     4     1    21 1   
     5     2     3 1   
     6     2    27 1   
     7     2    28 1   
     8     3     4 1   
     9     3    29 1   
    10     3    30 1   
    11     4     5 1   
    12     4    22 1   
    13     4    23 1   
    14     5     6 ar  
    15     5    10 ar  
    16     6     7 ar  
    17     6    31 1   
    18     7     8 ar  
    19     7    32 1   
    20     8     9 ar  
    21     8    11 1   
    22     9    10 ar  
    23     9    33 1   
    24    11    12 1   
    25    11    34 1   
    26    12    13 1   
    27    12    24 2   
    28    13    14 ar  
    29    13    18 ar  
    30    14    15 ar  
    31    14    35 1   
    32    15    16 ar  
    33    15    36 1   
    34    16    17 ar  
    35    16    19 1   
    36    17    18 ar  
    37    17    37 1   
    38    18    38 1   
    39    19    25 1   
    40    19    26 1   
    41    20    39 1   
    42    20    40 1   
    43    20    41 1   
    44    21    42 1   
    45    21    43 1   
    46    21    44 1   
    47    22    45 1   
    48    22    46 1   
    49    22    47 1   
    50    23    48 1   
    51    23    49 1   
    52    23    50 1   
@<TRIPOS>SUBSTRUCTURE
     1 A80         1 TEMP              0 ****  ****    0 ROOT
