@<TRIPOS>MOLECULE
molecule
   37    41     1     0     0
SMALL
bcc


@<TRIPOS>ATOM
      1 C10          0.0000     0.0000     0.0000 cc         1 A81       0.514200
      2 C20          2.6480     0.0130    -4.8890 cc         1 A81      -0.314300
      3 C21          2.3050     1.1880    -5.5980 cc         1 A81       0.529200
      4 O01         -0.4650    -1.1380    -3.0750 o          1 A81      -0.153500
      5 O03         -0.4650     1.1440    -3.0720 o          1 A81      -0.153500
      6 C04          1.6110     0.0020    -2.5560 cd         1 A81      -0.261500
      7 C05          2.6970     0.0100    -3.4270 cc         1 A81      -0.010300
      8 N06          3.8270     0.0130    -2.6380 na         1 A81       0.058400
      9 N07          3.4880     0.0070    -1.3980 nc         1 A81      -0.517800
     10 C08          2.1640     0.0010    -1.2710 cd         1 A81       0.443800
     11 C09          1.4120     0.0000     0.0000 cd         1 A81      -0.362800
     12 N11         -0.6530    -0.0000     1.1390 nd         1 A81      -0.658000
     13 C12         -0.0040    -0.0070     2.3100 cd         1 A81       0.495500
     14 N13          1.3660    -0.0120     2.3590 na         1 A81      -0.090500
     15 C14          2.0830     0.0000     1.2220 cc         1 A81       0.049700
     16 N15          1.7570    -0.0180     3.7050 ns         1 A81      -0.470200
     17 C16          0.6520    -0.0160     4.4740 c          1 A81       0.726700
     18 O17          0.6280    -0.0190     5.6920 o          1 A81      -0.600500
     19 C18         -0.4720    -0.0090     3.6250 cc         1 A81      -0.263500
     20 Br2         -2.2840    -0.0040     4.1670 br         1 A81       0.005300
     21 N22          2.2680     1.1650    -6.9090 nd         1 A81      -0.665000
     22 C23          2.5490     0.0510    -7.5960 cd         1 A81       0.487500
     23 N24          2.8880    -1.1130    -6.9580 na         1 A81      -0.084500
     24 C25          2.9370    -1.1550    -5.6220 cd         1 A81       0.056700
     25 N26          3.1280    -2.1120    -7.9110 ns         1 A81      -0.470200
     26 C27          2.9470    -1.5980    -9.1430 c          1 A81       0.725700
     27 O28          3.0760    -2.1900   -10.1990 o          1 A81      -0.582500
     28 C29          2.5760    -0.1900    -8.9720 cc         1 A81      -0.247500
     29 Br           2.1950     1.0540   -10.3450 br         1 A81       0.014300
     30 H1          -0.5420    -0.0820    -0.9350 h4         1 A81       0.054100
     31 H2           2.2010     2.1290    -5.0700 h4         1 A81       0.058100
     32 H3           4.7680     0.0180    -2.9780 hn         1 A81       0.356700
     33 H4           3.1660    -0.0000     1.2550 h4         1 A81       0.187000
     34 H5           2.7010    -0.0230     4.0390 hn         1 A81       0.371500
     35 H7           3.2030    -2.0730    -5.1110 h4         1 A81       0.178000
     36 H8           3.3930    -3.0560    -7.7090 hn         1 A81       0.373500
     37 N02          0.1740     0.0030    -2.9150 no         1 A81       0.220200
@<TRIPOS>BOND
     1    27    26 2
     2    29    28 1
     3    26    28 1
     4    26    25 1
     5    28    22 2
     6    25    23 1
     7    22    23 1
     8    22    21 1
     9    23    24 1
    10    21     3 2
    11    24     2 2
    12     8     7 1
    13     8     9 1
    14     3     2 1
    15     2     7 1
    16     7     6 2
    17     9    10 2
    18     6    10 1
    19     6    37 1
    20    10    11 1
    21    37     5 1
    22    37     4 1
    23    11     1 1
    24    11    15 2
    25     1    12 2
    26    15    14 1
    27    12    13 1
    28    14    13 1
    29    14    16 1
    30    13    19 2
    31    16    17 1
    32    19    17 1
    33    19    20 1
    34    17    18 2
    35     1    30 1
    36     3    31 1
    37     8    32 1
    38    15    33 1
    39    16    34 1
    40    24    35 1
    41    25    36 1
@<TRIPOS>SUBSTRUCTURE
     1 A81         1 TEMP              0 ****  ****    0 ROOT
