@<TRIPOS>MOLECULE
A81
   37    41     1     0     0
SMALL
bcc


@<TRIPOS>ATOM
      1 C10          0.0000     0.0000     0.0000 cc         1 A81       0.458200
      2 C20          2.6480     0.0130    -4.8890 cc         1 A81      -0.286300
      3 C21          2.3050     1.1880    -5.5980 cc         1 A81       0.486200
      4 O01         -0.4650    -1.1380    -3.0750 o          1 A81      -0.396500
      5 O03         -0.4650     1.1440    -3.0720 o          1 A81      -0.396500
      6 C04          1.6110     0.0020    -2.5560 cd         1 A81      -0.520500
      7 C05          2.6970     0.0100    -3.4270 cc         1 A81      -0.178300
      8 N06          3.8270     0.0130    -2.6380 na         1 A81       0.607400
      9 N07          3.4880     0.0070    -1.3980 nd         1 A81      -0.671800
     10 C08          2.1640     0.0010    -1.2710 cc         1 A81       0.480800
     11 C09          1.4120     0.0000     0.0000 cc         1 A81      -0.341800
     12 N11         -0.6530    -0.0000     1.1390 nd         1 A81      -0.529000
     13 C12         -0.0040    -0.0070     2.3100 cd         1 A81       0.279500
     14 N13          1.3660    -0.0120     2.3590 na         1 A81       0.271500
     15 C14          2.0830     0.0000     1.2220 cd         1 A81      -0.117300
     16 N15          1.7570    -0.0180     3.7050 ns         1 A81      -0.214200
     17 C16          0.6520    -0.0160     4.4740 c          1 A81       0.648700
     18 O17          0.6280    -0.0190     5.6920 o          1 A81      -0.644500
     19 C18         -0.4720    -0.0090     3.6250 cc         1 A81      -0.250500
     20 Br2         -2.2840    -0.0040     4.1670 br         1 A81       0.004300
     21 N22          2.2680     1.1650    -6.9090 nd         1 A81      -0.541000
     22 C23          2.5490     0.0510    -7.5960 cd         1 A81       0.269500
     23 N24          2.8880    -1.1130    -6.9580 na         1 A81       0.282500
     24 C25          2.9370    -1.1550    -5.6220 cd         1 A81      -0.115300
     25 N26          3.1280    -2.1120    -7.9110 ns         1 A81      -0.218200
     26 C27          2.9470    -1.5980    -9.1430 c          1 A81       0.649700
     27 O28          3.0760    -2.1900   -10.1990 o          1 A81      -0.623500
     28 C29          2.5760    -0.1900    -8.9720 cc         1 A81      -0.236500
     29 Br           2.1950     1.0540   -10.3450 br         1 A81       0.013300
     30 H1          -0.5420    -0.0820    -0.9350 h4         1 A81      -0.003900
     31 H2           2.2010     2.1290    -5.0700 h4         1 A81       0.003100
     32 H3           4.7680     0.0180    -2.9780 hn         1 A81       0.148700
     33 H4           3.1660    -0.0000     1.2550 h4         1 A81       0.151000
     34 H5           2.7010    -0.0230     4.0390 hn         1 A81       0.222500
     35 H7           3.2030    -2.0730    -5.1110 h4         1 A81       0.139000
     36 H8           3.3930    -3.0560    -7.7090 hn         1 A81       0.224500
     37 N02          0.1740     0.0030    -2.9150 no         1 A81       0.945200
@<TRIPOS>BOND
     1     1    11 1   
     2     1    12 2   
     3     1    30 1   
     4     2     3 1   
     5     2     7 1   
     6     2    24 2   
     7     3    21 2   
     8     3    31 1   
     9     4    37 1   
    10     5    37 1   
    11     6     7 2   
    12     6    10 1   
    13     6    37 1   
    14     7     8 1   
    15     8     9 1   
    16     8    32 1   
    17     9    10 2   
    18    10    11 1   
    19    11    15 2   
    20    12    13 1   
    21    13    14 1   
    22    13    19 2   
    23    14    15 1   
    24    14    16 1   
    25    15    33 1   
    26    16    17 1   
    27    16    34 1   
    28    17    18 2   
    29    17    19 1   
    30    19    20 1   
    31    21    22 1   
    32    22    23 1   
    33    22    28 2   
    34    23    24 1   
    35    23    25 1   
    36    24    35 1   
    37    25    26 1   
    38    25    36 1   
    39    26    27 2   
    40    26    28 1   
    41    28    29 1   
@<TRIPOS>SUBSTRUCTURE
     1 A81         1 TEMP              0 ****  ****    0 ROOT
