@<TRIPOS>MOLECULE
molecule
   53    56     1     0     0
SMALL
bcc


@<TRIPOS>ATOM
      1 C1           0.0000     0.0000     0.0000 cc         1 A82      -0.166300
      2 C2           1.3510     0.0000     0.0000 cd         1 A82      -0.037300
      3 N3           2.0490     0.0000     1.1720 n          1 A82      -0.044200
      4 C4           1.3890     0.0020     2.3690 cc         1 A82       0.167700
      5 N5           2.0600     0.0020     3.5190 nd         1 A82      -0.397600
      6 C6           3.3900     0.0020     3.5410 cd         1 A82       0.481600
      7 C7           4.1030     0.0000     2.3440 cc         1 A82      -0.451200
      8 C8           3.3980     0.0000     1.1430 c          1 A82       0.588500
      9 O9           3.9940    -0.0010     0.0770 o          1 A82      -0.687500
     10 N10          4.0630     0.0040     4.7480 nh         1 A82      -0.701400
     11 C11          5.4190     0.5650     4.8600 c3         1 A82       0.204300
     12 C12          5.4420     1.5460     6.0380 c3         1 A82       0.114400
     13 O13          4.9270     0.8950     7.2020 os         1 A82      -0.433600
     14 C14          3.5630     0.4810     7.0860 c3         1 A82       0.114400
     15 C15          3.4430    -0.5500     5.9630 c3         1 A82       0.204300
     16 C16         -0.0180     0.0010     2.3890 cd         1 A82      -0.095300
     17 C17         -0.7050     0.0010     1.2130 cc         1 A82      -0.066000
     18 C18         -0.7600     0.0040     3.7010 c3         1 A82       0.303800
     19 C19         -0.4800    -1.3030     4.4460 c3         1 A82      -0.104100
     20 C20         -0.7520     0.0060    -1.3060 c3         1 A82      -0.032800
     21 N21         -0.3100     1.1360     4.5150 nu         1 A82      -0.807600
     22 C22         -1.1460     1.6670     5.4870 ca         1 A82       0.226600
     23 C23         -1.6340     3.3660     7.1430 ca         1 A82      -0.048000
     24 C24         -0.7830     2.8420     6.1660 ca         1 A82      -0.189600
     25 C25         -2.8200     2.7280     7.4330 ca         1 A82      -0.228000
     26 C26         -2.3490     1.0430     5.7920 ca         1 A82      -0.260000
     27 C27         -3.1780     1.5730     6.7590 ca         1 A82      -0.101000
     28 C28          0.4880     3.5170     5.8500 c          1 A82       0.898200
     29 O29          0.8920     4.5710     6.5870 o          1 A82      -0.841800
     30 O30          1.1710     3.1250     4.9250 o          1 A82      -0.841800
     31 H2           1.8870    -0.0010    -0.9420 h4         1 A82       0.185000
     32 H17         -1.7880     0.0010     1.2140 ha         1 A82       0.144000
     33 H201        -1.8140    -0.0770    -1.1110 hc         1 A82       0.041700
     34 H202        -0.4290    -0.8320    -1.9120 hc         1 A82       0.041700
     35 H203        -0.5520     0.9310    -1.8330 hc         1 A82       0.041700
     36 H7           5.1860     0.0000     2.3480 ha         1 A82       0.159000
     37 H111         6.1300    -0.2330     5.0380 h1         1 A82       0.054700
     38 H112         5.6730     1.0890     3.9460 h1         1 A82       0.054700
     39 H151         3.9560    -1.4600     6.2500 h1         1 A82       0.054700
     40 H152         2.3970    -0.7590     5.7740 h1         1 A82       0.054700
     41 H121         6.4610     1.8640     6.2230 h1         1 A82       0.069200
     42 H122         4.8260     2.4060     5.8030 h1         1 A82       0.069200
     43 H141         2.9440     1.3390     6.8560 h1         1 A82       0.069200
     44 H142         3.2410     0.0360     8.0200 h1         1 A82       0.069200
     45 H18         -1.8230     0.0930     3.5140 h1         1 A82       0.047700
     46 H191        -0.0500    -1.0820     5.4150 hc         1 A82       0.036367
     47 H192         0.2140    -1.9050     3.8720 hc         1 A82       0.036367
     48 H193        -1.4070    -1.8490     4.5790 hc         1 A82       0.036367
     49 H21          0.5820     1.5540     4.3400 hn         1 A82       0.510800
     50 H26         -2.6370     0.1390     5.2690 ha         1 A82       0.105000
     51 H23         -1.3600     4.2700     7.6720 ha         1 A82       0.150000
     52 H25         -3.4790     3.1360     8.1910 ha         1 A82       0.101000
     53 H27         -4.1150     1.0800     6.9930 ha         1 A82       0.096000
@<TRIPOS>BOND
     1     1     2 2
     2     1    17 1
     3     1    20 1
     4     2     3 1
     5     3     4 1
     6     3     8 1
     7     4     5 2
     8     4    16 1
     9     5     6 1
    10     6     7 2
    11     6    10 1
    12     7     8 1
    13     8     9 2
    14    10    11 1
    15    10    15 1
    16    11    12 1
    17    12    13 1
    18    13    14 1
    19    14    15 1
    20    16    17 2
    21    16    18 1
    22    18    19 1
    23    18    21 1
    24    21    22 1
    25    22    24 ar
    26    22    26 ar
    27    23    24 ar
    28    23    25 ar
    29    24    28 1
    30    25    27 ar
    31    26    27 ar
    32    28    29 1
    33    28    30 1
    34     2    31 1
    35    17    32 1
    36    20    33 1
    37    20    34 1
    38    20    35 1
    39     7    36 1
    40    11    37 1
    41    11    38 1
    42    15    39 1
    43    15    40 1
    44    12    41 1
    45    12    42 1
    46    14    43 1
    47    14    44 1
    48    18    45 1
    49    19    46 1
    50    19    47 1
    51    19    48 1
    52    21    49 1
    53    26    50 1
    54    23    51 1
    55    25    52 1
    56    27    53 1
@<TRIPOS>SUBSTRUCTURE
     1 A82         1 TEMP              0 ****  ****    0 ROOT
