@<TRIPOS>MOLECULE
A82
   53    56     1     0     0
SMALL
bcc


@<TRIPOS>ATOM
      1 C1           0.0000     0.0000     0.0000 cc         1 A82      -0.142300
      2 C2           1.3510     0.0000     0.0000 cd         1 A82      -0.205300
      3 N3           2.0490     0.0000     1.1720 n          1 A82       0.470800
      4 C4           1.3890     0.0020     2.3690 cc         1 A82      -0.050300
      5 N5           2.0600     0.0020     3.5190 nd         1 A82      -0.302600
      6 C6           3.3900     0.0020     3.5410 cd         1 A82       0.317600
      7 C7           4.1030     0.0000     2.3440 cc         1 A82      -0.460200
      8 C8           3.3980     0.0000     1.1430 c          1 A82       0.486500
      9 O9           3.9940    -0.0010     0.0770 o          1 A82      -0.734500
     10 N10          4.0630     0.0040     4.7480 nh         1 A82      -0.332400
     11 C11          5.4190     0.5650     4.8600 c3         1 A82       0.129300
     12 C12          5.4420     1.5460     6.0380 c3         1 A82       0.186900
     13 O13          4.9270     0.8950     7.2020 os         1 A82      -0.417600
     14 C14          3.5630     0.4810     7.0860 c3         1 A82       0.186900
     15 C15          3.4430    -0.5500     5.9630 c3         1 A82       0.129300
     16 C16         -0.0180     0.0010     2.3890 cd         1 A82      -0.083300
     17 C17         -0.7050     0.0010     1.2130 cc         1 A82      -0.058000
     18 C18         -0.7600     0.0040     3.7010 c3         1 A82       0.213800
     19 C19         -0.4800    -1.3030     4.4460 c3         1 A82      -0.023100
     20 C20         -0.7520     0.0060    -1.3060 c3         1 A82       0.077200
     21 N21         -0.3100     1.1360     4.5150 nu         1 A82      -0.471600
     22 C22         -1.1460     1.6670     5.4870 ca         1 A82       0.109600
     23 C23         -1.6340     3.3660     7.1430 ca         1 A82      -0.012000
     24 C24         -0.7830     2.8420     6.1660 ca         1 A82      -0.200600
     25 C25         -2.8200     2.7280     7.4330 ca         1 A82      -0.218000
     26 C26         -2.3490     1.0430     5.7920 ca         1 A82      -0.260000
     27 C27         -3.1780     1.5730     6.7590 ca         1 A82      -0.070000
     28 C28          0.4880     3.5170     5.8500 c          1 A82       0.997200
     29 O29          0.8920     4.5710     6.5870 o          1 A82      -0.886800
     30 O30          1.1710     3.1250     4.9250 o          1 A82      -0.886800
     31 H2           1.8870    -0.0010    -0.9420 h4         1 A82       0.162000
     32 H17         -1.7880     0.0010     1.2140 ha         1 A82       0.117000
     33 H201        -1.8140    -0.0770    -1.1110 hc         1 A82       0.006367
     34 H202        -0.4290    -0.8320    -1.9120 hc         1 A82       0.006367
     35 H203        -0.5520     0.9310    -1.8330 hc         1 A82       0.006367
     36 H7           5.1860     0.0000     2.3480 ha         1 A82       0.150000
     37 H111         6.1300    -0.2330     5.0380 h1         1 A82       0.029200
     38 H112         5.6730     1.0890     3.9460 h1         1 A82       0.029200
     39 H151         3.9560    -1.4600     6.2500 h1         1 A82       0.029200
     40 H152         2.3970    -0.7590     5.7740 h1         1 A82       0.029200
     41 H121         6.4610     1.8640     6.2230 h1         1 A82       0.030450
     42 H122         4.8260     2.4060     5.8030 h1         1 A82       0.030450
     43 H141         2.9440     1.3390     6.8560 h1         1 A82       0.030450
     44 H142         3.2410     0.0360     8.0200 h1         1 A82       0.030450
     45 H18         -1.8230     0.0930     3.5140 h1         1 A82       0.026700
     46 H191        -0.0500    -1.0820     5.4150 hc         1 A82       0.007367
     47 H192         0.2140    -1.9050     3.8720 hc         1 A82       0.007367
     48 H193        -1.4070    -1.8490     4.5790 hc         1 A82       0.007367
     49 H21          0.5820     1.5540     4.3400 hn         1 A82       0.396800
     50 H26         -2.6370     0.1390     5.2690 ha         1 A82       0.099000
     51 H23         -1.3600     4.2700     7.6720 ha         1 A82       0.122000
     52 H25         -3.4790     3.1360     8.1910 ha         1 A82       0.084000
     53 H27         -4.1150     1.0800     6.9930 ha         1 A82       0.073000
@<TRIPOS>BOND
     1     1     2 2   
     2     1    17 1   
     3     1    20 1   
     4     2     3 1   
     5     2    31 1   
     6     3     4 1   
     7     3     8 1   
     8     4     5 2   
     9     4    16 1   
    10     5     6 1   
    11     6     7 2   
    12     6    10 1   
    13     7     8 1   
    14     7    36 1   
    15     8     9 2   
    16    10    11 1   
    17    10    15 1   
    18    11    12 1   
    19    11    37 1   
    20    11    38 1   
    21    12    13 1   
    22    12    41 1   
    23    12    42 1   
    24    13    14 1   
    25    14    15 1   
    26    14    43 1   
    27    14    44 1   
    28    15    39 1   
    29    15    40 1   
    30    16    17 2   
    31    16    18 1   
    32    17    32 1   
    33    18    19 1   
    34    18    21 1   
    35    18    45 1   
    36    19    46 1   
    37    19    47 1   
    38    19    48 1   
    39    20    33 1   
    40    20    34 1   
    41    20    35 1   
    42    21    22 1   
    43    21    49 1   
    44    22    24 ar  
    45    22    26 ar  
    46    23    24 ar  
    47    23    25 ar  
    48    23    51 1   
    49    24    28 1   
    50    25    27 ar  
    51    25    52 1   
    52    26    27 ar  
    53    26    50 1   
    54    27    53 1   
    55    28    29 1   
    56    28    30 1   
@<TRIPOS>SUBSTRUCTURE
     1 A82         1 TEMP              0 ****  ****    0 ROOT
