@<TRIPOS>MOLECULE
molecule
   99   102     1     0     0
SMALL
bcc


@<TRIPOS>ATOM
      1 C            0.0000     0.0000     0.0000 c          1 A83       0.671700
      2 O            1.2150     0.0000     0.0000 o          1 A83      -0.608100
      3 N           -0.6750     0.0000     1.1660 ns         1 A83      -0.579900
      4 C1           0.0580    -0.0000     2.4350 c3         1 A83       0.107700
      5 C2          -0.9220    -0.0000     3.5800 cc         1 A83       0.234600
      6 C3          -1.3770    -1.0810     4.2570 cd         1 A83      -0.263600
      7 N1          -2.2330    -0.6080     5.1920 na         1 A83       0.134400
      8 N2          -2.2880     0.6730     5.0770 nd         1 A83      -0.203800
      9 N3          -1.5140     1.0670     4.1290 nc         1 A83      -0.351000
     10 C4          -2.9730    -1.4140     6.1650 c3         1 A83       0.057000
     11 C5          -2.0910    -1.6750     7.3880 c3         1 A83       0.105100
     12 C6          -2.8980    -2.4290     8.4480 c3         1 A83       0.214800
     13 N4          -2.1000    -2.5560     9.6690 n3         1 A83      -0.811500
     14 C7          -1.1600    -3.6690     9.8180 c3         1 A83       0.238800
     15 C8          -1.8970    -4.8900    10.3720 c3         1 A83      -0.095700
     16 C9          -2.9160    -5.3810     9.3420 c3         1 A83      -0.088100
     17 C10         -0.8910    -6.0050    10.6650 c3         1 A83      -0.088100
     18 S           -2.2620    -1.4410    10.8840 sy         1 A83       1.425200
     19 O1          -3.4860    -0.7670    10.6280 o          1 A83      -0.634800
     20 O2          -1.9360    -2.1280    12.0850 o          1 A83      -0.634800
     21 C11         -0.9970    -0.2350    10.6640 ca         1 A83      -0.361500
     22 C12         -1.2360     0.8830     9.8870 ca         1 A83       0.003000
     23 C13         -0.2460     1.8300     9.7130 ca         1 A83      -0.213000
     24 C14          0.9900     1.6590    10.3180 ca         1 A83       0.172100
     25 C15          1.2310     0.5330    11.0930 ca         1 A83      -0.213000
     26 C16          0.2350    -0.4080    11.2680 ca         1 A83       0.003000
     27 O3           1.9670     2.5890    10.1480 os         1 A83      -0.287900
     28 C17          3.1030     2.1340    10.8860 c3         1 A83       0.101700
     29 C18         -3.3670    -2.7490     5.5280 c3         1 A83      -0.045100
     30 O4          -0.9610    -2.4600     7.0020 oh         1 A83      -0.604800
     31 C19         -4.3630    -2.5020     4.4230 ca         1 A83      -0.102300
     32 C20         -3.9320    -2.4090     3.1120 ca         1 A83      -0.119500
     33 C21         -4.8450    -2.1840     2.1000 ca         1 A83      -0.123500
     34 C22         -6.1890    -2.0500     2.3960 ca         1 A83      -0.120000
     35 C23         -6.6190    -2.1440     3.7070 ca         1 A83      -0.123500
     36 C24         -5.7070    -2.3740     4.7200 ca         1 A83      -0.119500
     37 C25         -0.7390     0.0010    -1.2810 ca         1 A83      -0.135600
     38 C26         -0.0430     0.0020    -2.4910 ca         1 A83      -0.090000
     39 C27         -0.7390     0.0020    -3.6830 ca         1 A83      -0.120500
     40 C28         -2.1220     0.0020    -3.6800 ca         1 A83      -0.099300
     41 C29         -2.8180     0.0020    -2.4830 ca         1 A83      -0.120500
     42 C30         -2.1340    -0.0040    -1.2850 ca         1 A83      -0.090000
     43 C31         -2.8750     0.0030    -4.9860 c3         1 A83       0.178300
     44 N5          -3.1200    -1.3780    -5.4090 ns         1 A83      -0.574900
     45 C45         -3.7820    -1.6250    -6.5560 c          1 A83       0.757100
     46 O46         -4.1760    -0.7000    -7.2400 o          1 A83      -0.618000
     47 O47         -4.0060    -2.8940    -6.9450 os         1 A83      -0.448900
     48 C48         -4.7190    -3.1590    -8.1810 c3         1 A83       0.185800
     49 C49         -3.9550    -2.5430    -9.3540 c3         1 A83      -0.106433
     50 C50         -4.8390    -4.6700    -8.3880 c3         1 A83      -0.106433
     51 C51         -6.1190    -2.5430    -8.1050 c3         1 A83      -0.106433
     52 HN          -1.6740     0.0590     1.1660 hn         1 A83       0.322500
     53 H11          0.6810     0.8840     2.4930 h1         1 A83       0.067200
     54 H12A         0.6810    -0.8850     2.4930 h1         1 A83       0.067200
     55 H3          -1.1080    -2.1170     4.0860 h4         1 A83       0.190000
     56 H4          -3.8660    -0.8820     6.4710 h1         1 A83       0.103700
     57 H5          -1.7520    -0.7310     7.7970 h1         1 A83       0.057700
     58 H61         -3.8070    -1.8820     8.6660 h1         1 A83       0.081200
     59 H62         -3.1500    -3.4150     8.0770 h1         1 A83       0.081200
     60 H71         -0.7340    -3.9130     8.8520 h1         1 A83       0.058200
     61 H72         -0.3690    -3.3850    10.5000 h1         1 A83       0.058200
     62 H8          -2.4110    -4.6180    11.2860 hc         1 A83       0.070700
     63 H91         -2.4670    -5.3690     8.3560 hc         1 A83       0.035533
     64 H92         -3.7820    -4.7300     9.3520 hc         1 A83       0.035533
     65 H93         -3.2210    -6.3910     9.5870 hc         1 A83       0.035533
     66 H101        -1.4140    -6.8730    11.0480 hc         1 A83       0.035533
     67 H102        -0.3710    -6.2700     9.7520 hc         1 A83       0.035533
     68 H103        -0.1750    -5.6610    11.4020 hc         1 A83       0.035533
     69 H12         -2.2020     1.0170     9.4150 ha         1 A83       0.153000
     70 H13         -0.4350     2.7070     9.1060 ha         1 A83       0.153000
     71 H15          2.1950     0.3970    11.5660 ha         1 A83       0.153000
     72 H16          0.4220    -1.2870    11.8730 ha         1 A83       0.153000
     73 H171         3.4210     1.1720    10.5020 h1         1 A83       0.048700
     74 H172         2.8380     2.0370    11.9320 h1         1 A83       0.048700
     75 H173         3.9100     2.8490    10.7820 h1         1 A83       0.048700
     76 H181        -2.4860    -3.2280     5.1200 hc         1 A83       0.072700
     77 H182        -3.8120    -3.3900     6.2790 hc         1 A83       0.072700
     78 HO4         -0.1700    -1.9720     7.1610 ho         1 A83       0.415000
     79 H20         -2.8790    -2.5140     2.8790 ha         1 A83       0.130500
     80 H21         -4.5080    -2.1110     1.0730 ha         1 A83       0.132000
     81 H22         -6.9040    -1.8720     1.6020 ha         1 A83       0.133000
     82 H23         -7.6720    -2.0420     3.9390 ha         1 A83       0.132000
     83 H24         -6.0440    -2.4470     5.7470 ha         1 A83       0.130500
     84 H26          1.0400     0.0020    -2.4950 ha         1 A83       0.145500
     85 H27         -0.2010     0.0020    -4.6230 ha         1 A83       0.141000
     86 H29         -3.9010    -0.0000    -2.4870 ha         1 A83       0.141000
     87 H30         -2.6800    -0.0040    -0.3490 ha         1 A83       0.145500
     88 H311        -3.8210     0.5140    -4.8570 h1         1 A83       0.062200
     89 H312        -2.2890     0.5130    -5.7400 h1         1 A83       0.062200
     90 HN5         -2.7960    -2.1390    -4.8450 hn         1 A83       0.326500
     91 H491        -4.2510    -3.0310   -10.2740 hc         1 A83       0.049700
     92 H492        -4.1810    -1.4860    -9.4170 hc         1 A83       0.049700
     93 H493        -2.8910    -2.6760    -9.2010 hc         1 A83       0.049700
     94 H501        -5.4990    -5.0860    -7.6360 hc         1 A83       0.049700
     95 H502        -5.2430    -4.8690    -9.3730 hc         1 A83       0.049700
     96 H503        -3.8600    -5.1260    -8.3000 hc         1 A83       0.049700
     97 H511        -6.0590    -1.4820    -8.3190 hc         1 A83       0.049700
     98 H512        -6.5240    -2.6880    -7.1110 hc         1 A83       0.049700
     99 H513        -6.7640    -3.0220    -8.8320 hc         1 A83       0.049700
@<TRIPOS>BOND
     1     1     2 2
     2     1     3 1
     3     1    37 1
     4     3     4 1
     5     3    52 1
     6     4     5 1
     7     4    53 1
     8     4    54 1
     9     5     6 2
    10     5     9 1
    11     6     7 1
    12     6    55 1
    13     7     8 1
    14     7    10 1
    15     8     9 2
    16    10    11 1
    17    10    29 1
    18    10    56 1
    19    11    12 1
    20    11    30 1
    21    11    57 1
    22    12    13 1
    23    12    58 1
    24    12    59 1
    25    13    14 1
    26    13    18 1
    27    14    15 1
    28    14    60 1
    29    14    61 1
    30    15    16 1
    31    15    17 1
    32    15    62 1
    33    16    63 1
    34    16    64 1
    35    16    65 1
    36    17    66 1
    37    17    67 1
    38    17    68 1
    39    18    19 2
    40    18    20 2
    41    18    21 1
    42    21    22 ar
    43    21    26 ar
    44    22    23 ar
    45    22    69 1
    46    23    24 ar
    47    23    70 1
    48    24    25 ar
    49    24    27 1
    50    25    26 ar
    51    25    71 1
    52    26    72 1
    53    27    28 1
    54    28    73 1
    55    28    74 1
    56    28    75 1
    57    29    31 1
    58    29    76 1
    59    29    77 1
    60    30    78 1
    61    31    32 ar
    62    31    36 ar
    63    32    33 ar
    64    32    79 1
    65    33    34 ar
    66    33    80 1
    67    34    35 ar
    68    34    81 1
    69    35    36 ar
    70    35    82 1
    71    36    83 1
    72    37    38 ar
    73    37    42 ar
    74    38    39 ar
    75    38    84 1
    76    39    40 ar
    77    39    85 1
    78    40    41 ar
    79    40    43 1
    80    41    42 ar
    81    41    86 1
    82    42    87 1
    83    43    44 1
    84    43    88 1
    85    43    89 1
    86    44    45 1
    87    44    90 1
    88    45    46 2
    89    45    47 1
    90    47    48 1
    91    48    49 1
    92    48    50 1
    93    48    51 1
    94    49    91 1
    95    49    92 1
    96    49    93 1
    97    50    94 1
    98    50    95 1
    99    50    96 1
   100    51    97 1
   101    51    98 1
   102    51    99 1
@<TRIPOS>SUBSTRUCTURE
     1 A83         1 TEMP              0 ****  ****    0 ROOT
