@<TRIPOS>MOLECULE
A84
   54    56     1     0     0
SMALL
bcc


@<TRIPOS>ATOM
      1 C1           0.0000     0.0000     0.0000 c3         1 A84      -0.034400
      2 C2           1.5270     0.0000     0.0000 c3         1 A84       0.044900
      3 C3           2.0580     0.0000     1.4100 ca         1 A84      -0.129300
      4 C4           1.2870     0.3530     2.4880 ca         1 A84      -0.024300
      5 C5          -0.1590     0.7580     2.3570 c3         1 A84       0.017900
      6 C6          -0.4830     1.1330     0.9130 c3         1 A84      -0.030400
      7 C7           3.3870    -0.3710     1.5990 ca         1 A84      -0.100000
      8 C8           3.9490    -0.3880     2.8550 ca         1 A84      -0.202000
      9 C9           3.1840    -0.0310     3.9590 ca         1 A84       0.084600
     10 C10          1.8450     0.3380     3.7770 ca         1 A84      -0.098600
     11 C11          1.0220     0.7130     4.9400 c          1 A84       0.971200
     12 O12          0.3860    -0.1350     5.5340 o          1 A84      -0.880300
     13 O13          0.9730     1.9990     5.3430 o          1 A84      -0.880300
     14 N14          3.7420    -0.0430     5.2310 nu         1 A84      -0.352500
     15 S15          5.3510     0.2910     5.4330 sy         1 A84       1.034200
     16 O16          5.6170     1.4230     4.6180 o          1 A84      -0.588300
     17 O17          5.5890     0.2090     6.8310 o          1 A84      -0.588300
     18 C18          6.2570    -1.0390     4.7150 ca         1 A84      -0.159500
     19 C19          6.1450    -2.3260     5.2410 ca         1 A84       0.087200
     20 C20          6.8650    -3.3740     4.6670 ca         1 A84      -0.181000
     21 C21          7.6910    -3.1300     3.5870 ca         1 A84       0.137900
     22 C22          7.8020    -1.8480     3.0720 ca         1 A84      -0.179000
     23 C23          7.0890    -0.8060     3.6380 ca         1 A84       0.032000
     24 F24          8.3900    -4.1420     3.0290 f          1 A84      -0.133900
     25 C25          5.2600    -2.5800     6.3970 ce         1 A84      -0.116200
     26 C26          5.6560    -3.3900     7.3690 c2         1 A84      -0.112200
     27 C27          7.0700    -3.9090     7.3880 c3         1 A84       0.142000
     28 N28          7.6780    -3.6260     8.6960 n3         1 A84      -0.520600
     29 C29          8.9500    -4.3610     8.7380 c3         1 A84       0.162600
     30 C30          8.0160    -2.1970     8.7030 c3         1 A84       0.162600
     31 H11         -0.3530    -0.9450     0.3940 hc         1 A84       0.007700
     32 H12         -0.3530     0.1840    -1.0080 hc         1 A84       0.007700
     33 H21          1.8710     0.8980    -0.4980 hc         1 A84       0.006700
     34 H22A         1.8710    -0.8980    -0.4980 hc         1 A84       0.006700
     35 H51         -0.7890    -0.0690     2.6600 hc         1 A84       0.045200
     36 H52         -0.3480     1.6120     2.9970 hc         1 A84       0.045200
     37 H61          0.0470     2.0430     0.6570 hc         1 A84       0.009700
     38 H62         -1.5560     1.2370     0.8080 hc         1 A84       0.009700
     39 H7           3.9890    -0.6510     0.7420 ha         1 A84       0.084000
     40 H8           4.9860    -0.6750     2.9820 ha         1 A84       0.109000
     41 H14          3.1640    -0.2200     6.0280 hn         1 A84       0.372800
     42 H20          6.7800    -4.3760     5.0700 ha         1 A84       0.133000
     43 H22          8.4520    -1.6600     2.2260 ha         1 A84       0.118000
     44 H23          7.1800     0.1940     3.2310 ha         1 A84       0.138000
     45 H25          4.2430    -2.2080     6.3870 ha         1 A84       0.137000
     46 H26          5.0040    -3.5740     8.2150 ha         1 A84       0.118000
     47 H271         7.0650    -4.9780     7.2160 h1         1 A84       0.026200
     48 H272         7.6440    -3.4200     6.6100 h1         1 A84       0.026200
     49 H291         8.7560    -5.4230     8.6580 h1         1 A84       0.005367
     50 H292         9.5770    -4.0450     7.9120 h1         1 A84       0.005367
     51 H293         9.4550    -4.1550     9.6740 h1         1 A84       0.005367
     52 H301         8.6850    -1.9790     7.8790 h1         1 A84       0.005367
     53 H302         7.1110    -1.6110     8.5980 h1         1 A84       0.005367
     54 H303         8.5020    -1.9460     9.6390 h1         1 A84       0.005367
@<TRIPOS>BOND
     1     1     2 1   
     2     1     6 1   
     3     1    31 1   
     4     1    32 1   
     5     2     3 1   
     6     2    33 1   
     7     2    34 1   
     8     3     4 ar  
     9     3     7 ar  
    10     4     5 1   
    11     4    10 ar  
    12     5     6 1   
    13     5    35 1   
    14     5    36 1   
    15     6    37 1   
    16     6    38 1   
    17     7     8 ar  
    18     7    39 1   
    19     8     9 ar  
    20     8    40 1   
    21     9    10 ar  
    22     9    14 1   
    23    10    11 1   
    24    11    12 1   
    25    11    13 1   
    26    14    15 1   
    27    14    41 1   
    28    15    16 2   
    29    15    17 2   
    30    15    18 1   
    31    18    19 ar  
    32    18    23 ar  
    33    19    20 ar  
    34    19    25 1   
    35    20    21 ar  
    36    20    42 1   
    37    21    22 ar  
    38    21    24 1   
    39    22    23 ar  
    40    22    43 1   
    41    23    44 1   
    42    25    26 2   
    43    25    45 1   
    44    26    27 1   
    45    26    46 1   
    46    27    28 1   
    47    27    47 1   
    48    27    48 1   
    49    28    29 1   
    50    28    30 1   
    51    29    49 1   
    52    29    50 1   
    53    29    51 1   
    54    30    52 1   
    55    30    53 1   
    56    30    54 1   
@<TRIPOS>SUBSTRUCTURE
     1 A84         1 TEMP              0 ****  ****    0 ROOT
