@<TRIPOS>MOLECULE
molecule
   80    84     1     0     0
SMALL
bcc


@<TRIPOS>ATOM
      1 N1           0.0000     0.0000     0.0000 n3         1 A88      -0.374600
      2 N2           1.3600     0.0000     0.0000 n          1 A88      -0.396200
      3 C3           2.0650     0.0000     1.1450 c          1 A88       0.855500
      4 O3           3.2240    -0.3610     1.0920 o          1 A88      -0.719500
      5 N4           1.5870     0.3550     2.3320 n          1 A88      -0.476800
      6 C5           0.2810     0.9930     2.5040 c3         1 A88       0.115700
      7 C6           0.0810     2.0450     1.4050 c3         1 A88       0.140100
      8 O6          -0.8460     3.0360     1.8550 oh         1 A88      -0.587800
      9 C7          -0.4630     1.3660     0.1630 c3         1 A88       0.066800
     10 C8          -0.4210    -0.4310    -1.3400 c3         1 A88       0.160100
     11 C9          -1.9060    -0.6890    -1.3410 ca         1 A88      -0.097300
     12 C10         -2.7800     0.3020    -1.7440 ca         1 A88      -0.115000
     13 C11         -4.1430     0.0650    -1.7440 ca         1 A88      -0.125500
     14 C12         -4.6300    -1.1640    -1.3420 ca         1 A88      -0.118000
     15 C13         -3.7560    -2.1560    -0.9400 ca         1 A88      -0.125500
     16 C14         -2.3940    -1.9210    -0.9430 ca         1 A88      -0.115000
     17 C15         -0.8210    -0.0650     2.4060 c3         1 A88      -0.088100
     18 C16         -2.1130     0.5070     2.9270 ca         1 A88      -0.067300
     19 C17         -3.0580     0.9950     2.0450 ca         1 A88      -0.120000
     20 C18         -4.2450     1.5190     2.5220 ca         1 A88      -0.127500
     21 C19         -4.4860     1.5560     3.8820 ca         1 A88      -0.133000
     22 C20         -3.5420     1.0680     4.7650 ca         1 A88      -0.127500
     23 C21         -2.3570     0.5390     4.2880 ca         1 A88      -0.120000
     24 C22          2.4050     0.1030     3.5210 c3         1 A88       0.169300
     25 C23          2.1280    -1.2860     4.0360 ca         1 A88      -0.088300
     26 C24          2.8160    -2.3640     3.5150 ca         1 A88      -0.187000
     27 C25          2.5620    -3.6420     3.9860 ca         1 A88       0.099100
     28 C26          1.6090    -3.8360     4.9830 ca         1 A88       0.084100
     29 C27          0.9280    -2.7500     5.5060 ca         1 A88      -0.141000
     30 C28          1.1860    -1.4770     5.0290 ca         1 A88      -0.141000
     31 O29          1.3560    -5.0880     5.4490 oh         1 A88      -0.505100
     32 O30          3.2380    -4.7050     3.4740 os         1 A88      -0.284900
     33 C31          4.1270    -4.1900     2.4810 c3         1 A88       0.099700
     34 C32          2.0760     0.0040    -1.2770 c3         1 A88       0.136300
     35 C33          2.4960     1.4130    -1.6130 ca         1 A88      -0.097300
     36 C34          3.6670     1.9270    -1.0900 ca         1 A88      -0.125000
     37 C35          4.0560     3.2170    -1.3950 ca         1 A88      -0.138000
     38 C36          3.2720     3.9980    -2.2270 ca         1 A88       0.085100
     39 C37          2.0930     3.4810    -2.7560 ca         1 A88       0.099100
     40 C38          1.7120     2.1850    -2.4490 ca         1 A88      -0.214000
     41 O39          3.6530     5.2690    -2.5290 oh         1 A88      -0.505100
     42 O40          1.3200     4.2440    -3.5730 os         1 A88      -0.278900
     43 C41          0.1970     3.4430    -3.9460 c3         1 A88       0.102700
     44 H5           0.2410     1.4750     3.4740 h1         1 A88       0.074700
     45 H6           1.0320     2.5110     1.1740 h1         1 A88       0.049700
     46 HO6         -0.4540     3.8900     1.7810 ho         1 A88       0.405000
     47 H71         -1.5450     1.3590     0.2190 h1         1 A88       0.063200
     48 H72         -0.1590     1.9390    -0.7050 h1         1 A88       0.063200
     49 H81          0.1040    -1.3390    -1.6090 h1         1 A88       0.057700
     50 H82         -0.1900     0.3460    -2.0590 h1         1 A88       0.057700
     51 H10         -2.3980     1.2660    -2.0590 ha         1 A88       0.133000
     52 H11         -4.8280     0.8420    -2.0600 ha         1 A88       0.134000
     53 H12         -5.6970    -1.3500    -1.3410 ha         1 A88       0.133000
     54 H13         -4.1380    -3.1200    -0.6270 ha         1 A88       0.134000
     55 H14         -1.7090    -2.6990    -0.6280 ha         1 A88       0.133000
     56 H151        -0.9470    -0.3600     1.3720 hc         1 A88       0.090200
     57 H152        -0.5440    -0.9300     2.9970 hc         1 A88       0.090200
     58 H17         -2.8700     0.9660     0.9780 ha         1 A88       0.127000
     59 H18         -4.9860     1.9020     1.8300 ha         1 A88       0.124000
     60 H19         -5.4150     1.9690     4.2570 ha         1 A88       0.124000
     61 H20         -3.7320     1.0960     5.8310 ha         1 A88       0.124000
     62 H21         -1.6170     0.1570     4.9810 ha         1 A88       0.127000
     63 H221         3.4540     0.1900     3.2640 h1         1 A88       0.068200
     64 H222         2.1610     0.8280     4.2890 h1         1 A88       0.068200
     65 H24          3.5570    -2.2110     2.7390 ha         1 A88       0.170000
     66 H27          0.1870    -2.8980     6.2830 ha         1 A88       0.141000
     67 H28          0.6520    -0.6280     5.4390 ha         1 A88       0.130000
     68 HO9          1.7000    -5.1740     6.3230 ho         1 A88       0.415000
     69 H311         4.7830    -3.4540     2.9310 h1         1 A88       0.046700
     70 H312         4.7190    -4.9990     2.0710 h1         1 A88       0.046700
     71 H313         3.5520    -3.7250     1.6890 h1         1 A88       0.046700
     72 H321         1.4270    -0.3750    -2.0570 h1         1 A88       0.079200
     73 H322         2.9550    -0.6250    -1.2010 h1         1 A88       0.079200
     74 H34          4.2810     1.3160    -0.4390 ha         1 A88       0.161000
     75 H35          4.9750     3.6180    -0.9830 ha         1 A88       0.146000
     76 H38          0.7950     1.7790    -2.8590 ha         1 A88       0.142000
     77 HO3          4.3980     5.2440    -3.1060 ho         1 A88       0.418000
     78 H411        -0.4010     3.9770    -4.6730 h1         1 A88       0.043033
     79 H412        -0.4030     3.2330    -3.0690 h1         1 A88       0.043033
     80 H413         0.5450     2.5120    -4.3770 h1         1 A88       0.043033
@<TRIPOS>BOND
     1     1     2 1
     2     1     9 1
     3     1    10 1
     4     2     3 1
     5     2    34 1
     6     3     4 2
     7     3     5 1
     8     5     6 1
     9     5    24 1
    10     6     7 1
    11     6    17 1
    12     6    44 1
    13     7     8 1
    14     7     9 1
    15     7    45 1
    16     8    46 1
    17     9    47 1
    18     9    48 1
    19    10    11 1
    20    10    49 1
    21    10    50 1
    22    11    12 ar
    23    11    16 ar
    24    12    13 ar
    25    12    51 1
    26    13    14 ar
    27    13    52 1
    28    14    15 ar
    29    14    53 1
    30    15    16 ar
    31    15    54 1
    32    16    55 1
    33    17    18 1
    34    17    56 1
    35    17    57 1
    36    18    19 ar
    37    18    23 ar
    38    19    20 ar
    39    19    58 1
    40    20    21 ar
    41    20    59 1
    42    21    22 ar
    43    21    60 1
    44    22    23 ar
    45    22    61 1
    46    23    62 1
    47    24    25 1
    48    24    63 1
    49    24    64 1
    50    25    26 ar
    51    25    30 ar
    52    26    27 ar
    53    26    65 1
    54    27    28 ar
    55    27    32 1
    56    28    29 ar
    57    28    31 1
    58    29    30 ar
    59    29    66 1
    60    30    67 1
    61    31    68 1
    62    32    33 1
    63    33    69 1
    64    33    70 1
    65    33    71 1
    66    34    35 1
    67    34    72 1
    68    34    73 1
    69    35    36 ar
    70    35    40 ar
    71    36    37 ar
    72    36    74 1
    73    37    38 ar
    74    37    75 1
    75    38    39 ar
    76    38    41 1
    77    39    40 ar
    78    39    42 1
    79    40    76 1
    80    41    77 1
    81    42    43 1
    82    43    78 1
    83    43    79 1
    84    43    80 1
@<TRIPOS>SUBSTRUCTURE
     1 A88         1 TEMP              0 ****  ****    0 ROOT
