@<TRIPOS>MOLECULE
molecule
   70    74     1     0     0
SMALL
bcc


@<TRIPOS>ATOM
      1 C1           0.0000     0.0000     0.0000 ca         1 A8B       0.430600
      2 C2           1.4150     0.0000     0.0000 ca         1 A8B      -0.187300
      3 C3           2.1110     0.0000     1.2170 ca         1 A8B      -0.113000
      4 C4           1.4170     0.0020     2.3900 ca         1 A8B      -0.130000
      5 C5           0.0240     0.0040     2.3930 ca         1 A8B      -0.122000
      6 C6          -0.6810     0.0040     1.2300 ca         1 A8B      -0.164300
      7 N7          -0.6610    -0.0090    -1.1580 nb         1 A8B      -0.701000
      8 C8          -0.0470    -0.0180    -2.3290 ca         1 A8B       0.456600
      9 C9           1.3350    -0.0120    -2.4070 ca         1 A8B      -0.188600
     10 C10          2.0920    -0.0010    -1.2400 ca         1 A8B       0.170600
     11 N11          3.4770     0.0010    -1.2920 nu         1 A8B      -0.826600
     12 C14          2.0760    -0.0070    -3.7180 c3         1 A8B      -0.021100
     13 C15          1.1590    -0.4490    -4.8570 c3         1 A8B      -0.085400
     14 C16         -0.1260     0.3840    -4.7910 c3         1 A8B      -0.084400
     15 C17         -0.9200    -0.0470    -3.5590 c3         1 A8B      -0.124700
     16 C19          8.1420     4.1680    -1.3300 c3         1 A8B      -0.082400
     17 C20          7.5920     2.7440    -1.4480 c3         1 A8B      -0.081400
     18 C21          6.0740     2.7680    -1.2550 c3         1 A8B      -0.081400
     19 C22          9.6600     4.1440    -1.5230 c3         1 A8B      -0.078400
     20 C24          5.5230     1.3450    -1.3730 c3         1 A8B      -0.093400
     21 N24         12.2550     6.9060    -1.4850 nu         1 A8B      -0.948600
     22 C25          4.0050     1.3680    -1.1800 c3         1 A8B       0.215800
     23 C26         16.1890     5.4010    -2.1090 ca         1 A8B       0.451200
     24 C27         14.8210     5.2190    -1.9680 ca         1 A8B      -0.267300
     25 C29         10.2100     5.5670    -1.4050 c3         1 A8B      -0.106400
     26 C30         11.7280     5.5440    -1.5980 c3         1 A8B       0.200800
     27 N32         16.7380     6.5930    -2.0640 nb         1 A8B      -0.692000
     28 C33         16.0060     7.6970    -1.8780 ca         1 A8B       0.422600
     29 C34         14.6030     7.5970    -1.7260 ca         1 A8B      -0.175300
     30 C35         13.9990     6.3170    -1.7720 ca         1 A8B       0.259600
     31 C39         13.8410     8.7570    -1.5310 ca         1 A8B      -0.092000
     32 C40         14.4590     9.9710    -1.4910 ca         1 A8B      -0.139000
     33 C41         15.8400    10.0730    -1.6410 ca         1 A8B      -0.111000
     34 C42         16.6090     8.9660    -1.8320 ca         1 A8B      -0.171300
     35 H3           3.1940    -0.0020     1.2250 ha         1 A8B       0.129000
     36 H4           1.9550     0.0010     3.3300 ha         1 A8B       0.129000
     37 H5          -0.5060     0.0050     3.3380 ha         1 A8B       0.131000
     38 H6          -1.7640     0.0060     1.2510 ha         1 A8B       0.147000
     39 HN11         3.9940    -0.7680    -0.9130 hn         1 A8B       0.426800
     40 H14          2.9170    -0.6870    -3.6530 hc         1 A8B       0.057200
     41 H14A         2.4360     0.9950    -3.9190 hc         1 A8B       0.057200
     42 H15          0.9190    -1.4990    -4.7430 hc         1 A8B       0.045200
     43 H15A         1.6530    -0.2820    -5.8060 hc         1 A8B       0.045200
     44 H16          0.1250     1.4350    -4.7110 hc         1 A8B       0.046200
     45 H16A        -0.7170     0.2120    -5.6820 hc         1 A8B       0.046200
     46 H17         -1.2900    -1.0540    -3.7090 hc         1 A8B       0.063700
     47 H17A        -1.7540     0.6290    -3.4190 hc         1 A8B       0.063700
     48 H19          7.9080     4.5660    -0.3510 hc         1 A8B       0.041700
     49 H19A         7.6910     4.7930    -2.0920 hc         1 A8B       0.041700
     50 H20          8.0430     2.1190    -0.6870 hc         1 A8B       0.042200
     51 H20A         7.8260     2.3460    -2.4280 hc         1 A8B       0.042200
     52 H21          5.8400     3.1660    -0.2750 hc         1 A8B       0.043200
     53 H21A         5.6230     3.3930    -2.0160 hc         1 A8B       0.043200
     54 H22          9.8940     3.7460    -2.5030 hc         1 A8B       0.042200
     55 H22A        10.1110     3.5190    -0.7620 hc         1 A8B       0.042200
     56 H24          5.9740     0.7200    -0.6120 hc         1 A8B       0.046700
     57 H24A         5.7570     0.9470    -2.3530 hc         1 A8B       0.046700
     58 HN24        11.6330     7.6700    -1.3080 hn         1 A8B       0.488800
     59 H25          3.5540     1.9930    -1.9410 h1         1 A8B       0.037700
     60 H25A         3.7720     1.7660    -0.2000 h1         1 A8B       0.037700
     61 H27         14.3980     4.2230    -2.0100 ha         1 A8B       0.146000
     62 H29          9.7590     6.1920    -2.1660 hc         1 A8B       0.042700
     63 H29A         9.9760     5.9650    -0.4250 hc         1 A8B       0.042700
     64 H30         12.1760     4.9190    -0.8350 h1         1 A8B       0.021200
     65 H30A        11.9650     5.1450    -2.5770 h1         1 A8B       0.021200
     66 H39         12.7660     8.6890    -1.4130 ha         1 A8B       0.152000
     67 H40         13.8690    10.8670    -1.3400 ha         1 A8B       0.131000
     68 H41         16.3090    11.0480    -1.6060 ha         1 A8B       0.133000
     69 H42         17.6820     9.0630    -1.9480 ha         1 A8B       0.150000
     70 H26         16.8230     4.5360    -2.2620 h4         1 A8B       0.033100
@<TRIPOS>BOND
     1     1     2 ar
     2     1     6 ar
     3     1     7 ar
     4     2     3 ar
     5     2    10 ar
     6     3     4 ar
     7     4     5 ar
     8     5     6 ar
     9     7     8 ar
    10     8     9 ar
    11     8    15 1
    12     9    10 ar
    13     9    12 1
    14    10    11 1
    15    11    22 1
    16    12    13 1
    17    13    14 1
    18    14    15 1
    19    16    17 1
    20    16    19 1
    21    17    18 1
    22    18    20 1
    23    19    25 1
    24    20    22 1
    25    21    26 1
    26    21    30 1
    27    23    24 ar
    28    23    27 ar
    29    24    30 ar
    30    25    26 1
    31    27    28 ar
    32    28    29 ar
    33    28    34 ar
    34    29    30 ar
    35    29    31 ar
    36    31    32 ar
    37    32    33 ar
    38    33    34 ar
    39     3    35 1
    40     4    36 1
    41     5    37 1
    42     6    38 1
    43    11    39 1
    44    12    40 1
    45    12    41 1
    46    13    42 1
    47    13    43 1
    48    14    44 1
    49    14    45 1
    50    15    46 1
    51    15    47 1
    52    16    48 1
    53    16    49 1
    54    17    50 1
    55    17    51 1
    56    18    52 1
    57    18    53 1
    58    19    54 1
    59    19    55 1
    60    20    56 1
    61    20    57 1
    62    21    58 1
    63    22    59 1
    64    22    60 1
    65    23    70 1
    66    24    61 1
    67    25    62 1
    68    25    63 1
    69    26    64 1
    70    26    65 1
    71    31    66 1
    72    32    67 1
    73    33    68 1
    74    34    69 1
@<TRIPOS>SUBSTRUCTURE
     1 A8B         1 TEMP              0 ****  ****    0 ROOT
