@<TRIPOS>MOLECULE
A8B
   70    74     1     0     0
SMALL
bcc


@<TRIPOS>ATOM
      1 C1         -0.1110   -0.2620   -0.0250 ca        1 A8B      0.409600
      2 C2          1.3140   -0.1920    0.0080 ca        1 A8B     -0.170300
      3 C3          1.9750   -0.3210    1.2590 ca        1 A8B     -0.120000
      4 C4          1.2650   -0.5300    2.4150 ca        1 A8B     -0.129000
      5 C5         -0.1460   -0.6180    2.3830 ca        1 A8B     -0.126000
      6 C6         -0.8240   -0.4860    1.2000 ca        1 A8B     -0.164300
      7 N7         -0.8270   -0.1170   -1.1900 nb        1 A8B     -0.680000
      8 C8         -0.1710    0.0880   -2.3290 ca        1 A8B      0.448600
      9 C9          1.2660    0.1630   -2.4120 ca        1 A8B     -0.178600
     10 C10         2.0100    0.0190   -1.2380 ca        1 A8B      0.132600
     11 N11         3.4310    0.0050   -1.2900 nh        1 A8B     -0.717600
     12 C14         1.9470    0.4100   -3.7120 c3        1 A8B     -0.026100
     13 C15         1.0700    0.1860   -4.9240 c3        1 A8B     -0.079400
     14 C16        -0.2760    0.8430   -4.7310 c3        1 A8B     -0.080400
     15 C17        -1.0100    0.1990   -3.5770 c3        1 A8B     -0.132700
     16 C19         8.2890    3.9620   -1.3310 c3        1 A8B     -0.079400
     17 C20         7.6920    2.5720   -1.2740 c3        1 A8B     -0.079400
     18 C21         6.1800    2.6230   -1.3160 c3        1 A8B     -0.079400
     19 C22         9.8010    3.9100   -1.2900 c3        1 A8B     -0.078400
     20 C24         5.5870    1.2320   -1.2580 c3        1 A8B     -0.085400
     21 N24        12.5590    6.5110   -1.3090 nh        1 A8B     -0.742600
     22 C25         4.0610    1.3140   -1.3000 c3        1 A8B      0.169800
     23 C26        16.1680    5.6440   -1.5420 ca        1 A8B      0.448200
     24 C27        14.7660    5.4820   -1.3890 ca        1 A8B     -0.345300
     25 C29        10.3950    5.3010   -1.3430 c3        1 A8B     -0.091400
     26 C30        11.9200    5.2160   -1.3030 c3        1 A8B      0.192800
     27 N32        16.7710    6.7870   -1.8150 nb        1 A8B     -0.694000
     28 C33        15.9770    7.9100   -1.9510 ca        1 A8B      0.421600
     29 C34        14.5550    7.8740   -1.8090 ca        1 A8B     -0.178300
     30 C35        13.9320    6.5950   -1.5180 ca        1 A8B      0.209600
     31 C39        13.8230    9.0810   -1.9500 ca        1 A8B     -0.107000
     32 C40        14.4590   10.2670   -2.2310 ca        1 A8B     -0.139000
     33 C41        15.8620   10.3050   -2.3830 ca        1 A8B     -0.119000
     34 C42        16.6080    9.1620   -2.2470 ca        1 A8B     -0.172300
     35 H3          3.0710   -0.2430    1.3180 ha        1 A8B      0.125000
     36 H4          1.7850   -0.6280    3.3800 ha        1 A8B      0.133000
     37 H5         -0.6920   -0.7920    3.3220 ha        1 A8B      0.135000
     38 H6         -1.9230   -0.5490    1.1690 ha        1 A8B      0.150000
     39 HN11        3.8110   -0.5700   -0.5600 hn        1 A8B      0.376800
     40 H14         2.3090    1.4760   -3.7200 hc        1 A8B      0.057700
     41 H14A        2.8540   -0.2490   -3.7990 hc        1 A8B      0.057700
     42 H15         1.5780    0.6080   -5.8300 hc        1 A8B      0.044700
     43 H15A        0.9320   -0.9130   -5.0980 hc        1 A8B      0.044700
     44 H16        -0.8930    0.7400   -5.6620 hc        1 A8B      0.045700
     45 H16A       -0.1400    1.9390   -4.5370 hc        1 A8B      0.045700
     46 H17        -1.3240   -0.8410   -3.8680 hc        1 A8B      0.065700
     47 H17A       -1.9460    0.7810   -3.3630 hc        1 A8B      0.065700
     48 H19         7.9100    4.5700   -0.4670 hc        1 A8B      0.042200
     49 H19A        7.9550    4.4760   -2.2700 hc        1 A8B      0.042200
     50 H20         8.0260    2.0570   -0.3340 hc        1 A8B      0.042200
     51 H20A        8.0720    1.9630   -2.1370 hc        1 A8B      0.042200
     52 H21         5.8470    3.1370   -2.2560 hc        1 A8B      0.042200
     53 H21A        5.8010    3.2330   -0.4540 hc        1 A8B      0.042200
     54 H22        10.1350    3.3930   -0.3510 hc        1 A8B      0.044200
     55 H22A       10.1800    3.3030   -2.1550 hc        1 A8B      0.044200
     56 H24         5.9630    0.6240   -2.1220 hc        1 A8B      0.048200
     57 H24A        5.9200    0.7200   -0.3170 hc        1 A8B      0.048200
     58 HN24       12.0160    7.2400   -1.7170 hn        1 A8B      0.410800
     59 H25         3.7140    1.9520   -0.4350 h1        1 A8B      0.038700
     60 H25A        3.7480    1.8360   -2.2490 h1        1 A8B      0.038700
     61 H27        14.3750    4.4820   -1.1650 ha        1 A8B      0.143000
     62 H29        10.0600    5.8170   -2.2810 hc        1 A8B      0.048700
     63 H29A       10.0190    5.9040   -0.4750 hc        1 A8B      0.048700
     64 H30        12.2330    4.6840   -0.3580 h1        1 A8B      0.043700
     65 H30A       12.2710    4.5880   -2.1750 h1        1 A8B      0.043700
     66 H39        12.7300    9.0920   -1.8240 ha        1 A8B      0.124000
     67 H40        13.8820   11.1970   -2.3380 ha        1 A8B      0.133000
     68 H41        16.3500   11.2650   -2.6100 ha        1 A8B      0.135000
     69 H42        17.7030    9.1890   -2.3590 ha        1 A8B      0.151000
     70 H26        16.8260    4.7610   -1.4340 h4        1 A8B      0.018100
@<TRIPOS>BOND
     1    1    2 ar  
     2    1    6 ar  
     3    1    7 ar  
     4    2    3 ar  
     5    2   10 ar  
     6    3    4 ar  
     7    3   35 1   
     8    4    5 ar  
     9    4   36 1   
    10    5    6 ar  
    11    5   37 1   
    12    6   38 1   
    13    7    8 ar  
    14    8    9 ar  
    15    8   15 1   
    16    9   10 ar  
    17    9   12 1   
    18   10   11 1   
    19   11   22 1   
    20   11   39 1   
    21   12   13 1   
    22   12   40 1   
    23   12   41 1   
    24   13   14 1   
    25   13   42 1   
    26   13   43 1   
    27   14   15 1   
    28   14   44 1   
    29   14   45 1   
    30   15   46 1   
    31   15   47 1   
    32   16   17 1   
    33   16   19 1   
    34   16   48 1   
    35   16   49 1   
    36   17   18 1   
    37   17   50 1   
    38   17   51 1   
    39   18   20 1   
    40   18   52 1   
    41   18   53 1   
    42   19   25 1   
    43   19   54 1   
    44   19   55 1   
    45   20   22 1   
    46   20   56 1   
    47   20   57 1   
    48   21   26 1   
    49   21   30 1   
    50   21   58 1   
    51   22   59 1   
    52   22   60 1   
    53   23   24 ar  
    54   23   27 ar  
    55   23   70 1   
    56   24   30 ar  
    57   24   61 1   
    58   25   26 1   
    59   25   62 1   
    60   25   63 1   
    61   26   64 1   
    62   26   65 1   
    63   27   28 ar  
    64   28   29 ar  
    65   28   34 ar  
    66   29   30 ar  
    67   29   31 ar  
    68   31   32 ar  
    69   31   66 1   
    70   32   33 ar  
    71   32   67 1   
    72   33   34 ar  
    73   33   68 1   
    74   34   69 1   
@<TRIPOS>SUBSTRUCTURE
     1 A8B         1 TEMP              0 ****  ****    0 ROOT
