@<TRIPOS>MOLECULE
A8D
   30    31     1     0     0
SMALL
bcc


@<TRIPOS>ATOM
      1 CAA          0.0000     0.0000     0.0000 c3         1 A8D       0.244700
      2 CAB          8.7250     1.5930     7.0290 c3         1 A8D       0.021700
      3 OAC          7.7550     0.0010     4.5860 o          1 A8D      -0.598100
      4 OAD          8.7100    -1.0700     6.8710 o          1 A8D      -0.566800
      5 OAE          7.4510    -0.0240     8.7270 o          1 A8D      -0.566800
      6 CAF          1.2830     0.0000     2.3780 ca         1 A8D      -0.165000
      7 CAG          1.8890     0.0000     3.6140 ca         1 A8D      -0.068000
      8 CAH          3.4230     0.0000     1.2810 ca         1 A8D      -0.082000
      9 CAI          5.4130     0.0010     2.9330 cc         1 A8D      -0.060200
     10 NAJ          6.5630     0.0010     6.4610 ns         1 A8D      -0.326300
     11 NAK          4.1490     0.0010     4.7730 na         1 A8D       0.368600
     12 OAL          1.4290     0.0000     0.0000 os         1 A8D      -0.307900
     13 CAM          6.6600     0.0010     5.1160 c          1 A8D       0.699300
     14 CAN          2.0460     0.0000     1.2120 ca         1 A8D       0.118100
     15 CAO          5.4430     0.0010     4.2910 cd         1 A8D      -0.350300
     16 CAP          4.0550     0.0000     2.5310 ca         1 A8D      -0.086800
     17 CAQ          3.2780    -0.0000     3.7060 ca         1 A8D      -0.244200
     18 SAR          7.9340     0.0020     7.3900 s6         1 A8D       0.955600
     19 HAA         -0.3610    -0.8820     0.5150 h1         1 A8D      -0.003633
     20 HAAA        -0.3610     0.8870     0.5060 h1         1 A8D      -0.003633
     21 HAAB        -0.3610    -0.0050    -1.0210 h1         1 A8D      -0.003633
     22 HAB          7.9650     2.3570     6.9190 h1         1 A8D       0.068700
     23 HABA         9.2930     1.5140     6.1100 h1         1 A8D       0.068700
     24 HABB         9.3890     1.8590     7.8430 h1         1 A8D       0.068700
     25 HAF          0.2020     0.0000     2.3120 ha         1 A8D       0.119000
     26 HAG          1.2860    -0.0000     4.5130 ha         1 A8D       0.100000
     27 HAH          4.0130     0.0000     0.3730 ha         1 A8D       0.119000
     28 HAI          6.2740     0.0010     2.2750 ha         1 A8D       0.143000
     29 HNAJ         5.6630    -0.0270     6.8980 hn         1 A8D       0.225500
     30 HNAK         3.8870     0.0010     5.7390 hn         1 A8D       0.112700
@<TRIPOS>BOND
     1     1    12 1   
     2     1    19 1   
     3     1    20 1   
     4     1    21 1   
     5     2    18 1   
     6     2    22 1   
     7     2    23 1   
     8     2    24 1   
     9     3    13 2   
    10     4    18 2   
    11     5    18 2   
    12     6     7 ar  
    13     6    14 ar  
    14     6    25 1   
    15     7    17 ar  
    16     7    26 1   
    17     8    14 ar  
    18     8    16 ar  
    19     8    27 1   
    20     9    15 2   
    21     9    16 1   
    22     9    28 1   
    23    10    13 1   
    24    10    18 1   
    25    10    29 1   
    26    11    15 1   
    27    11    17 1   
    28    11    30 1   
    29    12    14 1   
    30    13    15 1   
    31    16    17 ar  
@<TRIPOS>SUBSTRUCTURE
     1 A8D         1 TEMP              0 ****  ****    0 ROOT
