@<TRIPOS>MOLECULE
A8F
   46    48     1     0     0
SMALL
bcc


@<TRIPOS>ATOM
      1 O21          0.0000     0.0000     0.0000 o          1 A8F      -0.572100
      2 C12          1.2140     0.0000     0.0000 c          1 A8F       0.666700
      3 C13          1.9670     0.0000     1.3050 c3         1 A8F       0.062800
      4 N14          1.0130     0.0010     2.4210 n3         1 A8F      -0.515600
      5 C15          0.2440     1.2530     2.4550 c3         1 A8F       0.141800
      6 C16         -0.8350     1.1600     3.5350 c3         1 A8F      -0.021400
      7 C17         -0.1720     0.9110     4.8940 c3         1 A8F      -0.028400
      8 C18          0.6610    -0.3720     4.8170 c3         1 A8F      -0.021400
      9 C19          1.6970    -0.2360     3.6990 c3         1 A8F       0.141800
     10 C9           1.9450    -0.0080    -1.2690 cc         1 A8F      -0.282600
     11 C10          3.4040    -0.0160    -1.4490 cc         1 A8F      -0.125000
     12 C11          3.6220    -0.0220    -2.7740 cd         1 A8F      -0.324600
     13 C23          4.9750    -0.0310    -3.4360 c3         1 A8F       0.107200
     14 C8           1.4060    -0.0150    -2.5410 cd         1 A8F      -0.224600
     15 C22         -0.0630    -0.0170    -2.8790 c3         1 A8F       0.088200
     16 N7           2.4200    -0.0170    -3.4270 na         1 A8F       0.571800
     17 C5           2.2660    -0.0200    -4.8200 ca         1 A8F      -0.197200
     18 C4           2.6880    -1.1140    -5.5640 ca         1 A8F      -0.069000
     19 C3           2.5360    -1.1150    -6.9370 ca         1 A8F      -0.094000
     20 C6           1.6870     1.0680    -5.4580 ca         1 A8F      -0.069000
     21 C1           1.5370     1.0630    -6.8310 ca         1 A8F      -0.094000
     22 C2           1.9630    -0.0260    -7.5710 ca         1 A8F      -0.022600
     23 Cl1          1.7740    -0.0300    -9.2970 cl         1 A8F      -0.010400
     24 H1           2.5910     0.8840     1.3620 h1         1 A8F       0.026700
     25 H2           2.5890    -0.8850     1.3630 h1         1 A8F       0.026700
     26 H4           0.9090     2.0780     2.6810 h1         1 A8F       0.012450
     27 H5          -0.2250     1.4130     1.4920 h1         1 A8F       0.012450
     28 H6          -1.3900     2.0900     3.5710 hc         1 A8F       0.019200
     29 H7          -1.5060     0.3410     3.3060 hc         1 A8F       0.019200
     30 H8           0.4720     1.7460     5.1400 hc         1 A8F       0.010200
     31 H9          -0.9360     0.8000     5.6530 hc         1 A8F       0.010200
     32 H10          0.0100    -1.2120     4.6050 hc         1 A8F       0.019200
     33 H11          1.1680    -0.5290     5.7610 hc         1 A8F       0.019200
     34 H12          2.2760    -1.1490     3.6330 h1         1 A8F       0.012450
     35 H13          2.3530     0.5980     3.9160 h1         1 A8F       0.012450
     36 H14          4.1390    -0.2260    -0.6820 ha         1 A8F       0.130000
     37 H15          5.7380     0.1980    -2.7020 hc         1 A8F       0.007367
     38 H16          5.1640    -1.0100    -3.8590 hc         1 A8F       0.007367
     39 H17          4.9970     0.7130    -4.2240 hc         1 A8F       0.007367
     40 H18         -0.4770     0.9680    -2.6950 hc         1 A8F       0.019367
     41 H19         -0.5750    -0.7450    -2.2610 hc         1 A8F       0.019367
     42 H20         -0.1930    -0.2740    -3.9230 hc         1 A8F       0.019367
     43 H21          3.1360    -1.9670    -5.0670 ha         1 A8F       0.121000
     44 H22          2.8670    -1.9670    -7.5180 ha         1 A8F       0.121000
     45 H23          1.3520     1.9210    -4.8790 ha         1 A8F       0.121000
     46 H24          1.0870     1.9130    -7.3300 ha         1 A8F       0.121000
@<TRIPOS>BOND
     1     1     2 2   
     2     2     3 1   
     3     2    10 1   
     4     3     4 1   
     5     3    24 1   
     6     3    25 1   
     7     4     5 1   
     8     4     9 1   
     9     5     6 1   
    10     5    26 1   
    11     5    27 1   
    12     6     7 1   
    13     6    28 1   
    14     6    29 1   
    15     7     8 1   
    16     7    30 1   
    17     7    31 1   
    18     8     9 1   
    19     8    32 1   
    20     8    33 1   
    21     9    34 1   
    22     9    35 1   
    23    10    11 1   
    24    10    14 2   
    25    11    12 2   
    26    11    36 1   
    27    12    13 1   
    28    12    16 1   
    29    13    37 1   
    30    13    38 1   
    31    13    39 1   
    32    14    15 1   
    33    14    16 1   
    34    15    40 1   
    35    15    41 1   
    36    15    42 1   
    37    16    17 1   
    38    17    18 ar  
    39    17    20 ar  
    40    18    19 ar  
    41    18    43 1   
    42    19    22 ar  
    43    19    44 1   
    44    20    21 ar  
    45    20    45 1   
    46    21    22 ar  
    47    21    46 1   
    48    22    23 1   
@<TRIPOS>SUBSTRUCTURE
     1 A8F         1 TEMP              0 ****  ****    0 ROOT
