@<TRIPOS>MOLECULE
molecule
   46    48     1     0     0
SMALL
bcc


@<TRIPOS>ATOM
      1 O21          0.0000     0.0000     0.0000 o          1 A8F      -0.537100
      2 C12          1.2140     0.0000     0.0000 c          1 A8F       0.611700
      3 C13          1.9670     0.0000     1.3050 c3         1 A8F       0.074800
      4 N14          1.0130     0.0010     2.4210 n3         1 A8F      -0.712600
      5 C15          0.2440     1.2530     2.4550 c3         1 A8F       0.161300
      6 C16         -0.8350     1.1600     3.5350 c3         1 A8F      -0.075900
      7 C17         -0.1720     0.9110     4.8940 c3         1 A8F      -0.083400
      8 C18          0.6610    -0.3720     4.8170 c3         1 A8F      -0.075900
      9 C19          1.6970    -0.2360     3.6990 c3         1 A8F       0.161300
     10 C9           1.9450    -0.0080    -1.2690 cc         1 A8F      -0.272600
     11 C10          3.4040    -0.0160    -1.4490 cc         1 A8F      -0.166000
     12 C11          3.6220    -0.0220    -2.7740 cd         1 A8F      -0.111600
     13 C23          4.9750    -0.0310    -3.4360 c3         1 A8F      -0.020800
     14 C8           1.4060    -0.0150    -2.5410 cd         1 A8F      -0.017600
     15 C22         -0.0630    -0.0170    -2.8790 c3         1 A8F      -0.027800
     16 N7           2.4200    -0.0170    -3.4270 na         1 A8F       0.021800
     17 C5           2.2660    -0.0200    -4.8200 ca         1 A8F      -0.012200
     18 C4           2.6880    -1.1140    -5.5640 ca         1 A8F      -0.112500
     19 C3           2.5360    -1.1150    -6.9370 ca         1 A8F      -0.116000
     20 C6           1.6870     1.0680    -5.4580 ca         1 A8F      -0.112500
     21 C1           1.5370     1.0630    -6.8310 ca         1 A8F      -0.116000
     22 C2           1.9630    -0.0260    -7.5710 ca         1 A8F       0.032400
     23 Cl1          1.7740    -0.0300    -9.2970 cl         1 A8F      -0.097400
     24 H1           2.5910     0.8840     1.3620 h1         1 A8F       0.054200
     25 H2           2.5890    -0.8850     1.3630 h1         1 A8F       0.054200
     26 H4           0.9090     2.0780     2.6810 h1         1 A8F       0.035700
     27 H5          -0.2250     1.4130     1.4920 h1         1 A8F       0.035700
     28 H6          -1.3900     2.0900     3.5710 hc         1 A8F       0.048700
     29 H7          -1.5060     0.3410     3.3060 hc         1 A8F       0.048700
     30 H8           0.4720     1.7460     5.1400 hc         1 A8F       0.037700
     31 H9          -0.9360     0.8000     5.6530 hc         1 A8F       0.037700
     32 H10          0.0100    -1.2120     4.6050 hc         1 A8F       0.048700
     33 H11          1.1680    -0.5290     5.7610 hc         1 A8F       0.048700
     34 H12          2.2760    -1.1490     3.6330 h1         1 A8F       0.035700
     35 H13          2.3530     0.5980     3.9160 h1         1 A8F       0.035700
     36 H14          4.1390    -0.2260    -0.6820 ha         1 A8F       0.155000
     37 H15          5.7380     0.1980    -2.7020 hc         1 A8F       0.048033
     38 H16          5.1640    -1.0100    -3.8590 hc         1 A8F       0.048033
     39 H17          4.9970     0.7130    -4.2240 hc         1 A8F       0.048033
     40 H18         -0.4770     0.9680    -2.6950 hc         1 A8F       0.059700
     41 H19         -0.5750    -0.7450    -2.2610 hc         1 A8F       0.059700
     42 H20         -0.1930    -0.2740    -3.9230 hc         1 A8F       0.059700
     43 H21          3.1360    -1.9670    -5.0670 ha         1 A8F       0.152500
     44 H22          2.8670    -1.9670    -7.5180 ha         1 A8F       0.152000
     45 H23          1.3520     1.9210    -4.8790 ha         1 A8F       0.152500
     46 H24          1.0870     1.9130    -7.3300 ha         1 A8F       0.152000
@<TRIPOS>BOND
     1     6     5 1
     2     6     7 1
     3     5     4 1
     4     7     8 1
     5     3     4 1
     6     3     2 1
     7     4     9 1
     8     8     9 1
     9     2     1 2
    10     2    10 1
    11    11    10 1
    12    11    12 2
    13    10    14 2
    14    12    13 1
    15    12    16 1
    16    14    16 1
    17    14    15 1
    18    16    17 1
    19    20    17 ar
    20    20    21 ar
    21    17    18 ar
    22    21    22 ar
    23    18    19 ar
    24    22    19 ar
    25    22    23 1
    26     3    24 1
    27     3    25 1
    28     5    26 1
    29     5    27 1
    30     6    28 1
    31     6    29 1
    32     7    30 1
    33     7    31 1
    34     8    32 1
    35     8    33 1
    36     9    34 1
    37     9    35 1
    38    11    36 1
    39    13    37 1
    40    13    38 1
    41    13    39 1
    42    15    40 1
    43    15    41 1
    44    15    42 1
    45    18    43 1
    46    19    44 1
    47    20    45 1
    48    21    46 1
@<TRIPOS>SUBSTRUCTURE
     1 A8F         1 TEMP              0 ****  ****    0 ROOT
