@<TRIPOS>MOLECULE
molecule
   32    34     1     0     0
SMALL
bcc


@<TRIPOS>ATOM
      1 C12          0.0000     0.0000     0.0000 ca         1 A8H      -0.125500
      2 C13          1.3820     0.0000     0.0000 ca         1 A8H      -0.122500
      3 C11         -0.6920     0.0010     1.1970 ca         1 A8H      -0.128000
      4 C10         -0.0010     0.0010     2.3940 ca         1 A8H      -0.125500
      5 C9           1.3810     0.0010     2.3940 ca         1 A8H      -0.122500
      6 C8           2.0720     0.0000     1.1970 ca         1 A8H      -0.080300
      7 C7           6.2860     0.0670     2.3680 c3         1 A8H      -0.148700
      8 C4           3.5800    -0.0000     1.1970 c3         1 A8H      -0.025400
      9 C5           4.0980     1.2500     1.9190 c3         1 A8H      -0.072400
     10 C6           5.6130     1.2930     1.7810 c3         1 A8H      -0.067400
     11 C3           4.0930    -1.2270     1.9440 c3         1 A8H      -0.059400
     12 C2           5.5890    -1.2520     2.0680 c3         1 A8H      -0.155700
     13 C1           6.2730    -1.7220     0.8020 c          1 A8H       0.708500
     14 O1           5.8370    -2.5250     0.0050 o          1 A8H      -0.580500
     15 N            7.4560    -1.0850     0.7250 ns         1 A8H      -0.587500
     16 C            7.6210    -0.1240     1.6510 c          1 A8H       0.703500
     17 O            8.6470     0.4820     1.8770 o          1 A8H      -0.580500
     18 H1          -0.5410     0.0000    -0.9380 ha         1 A8H       0.130000
     19 H2           1.9240    -0.0000    -0.9380 ha         1 A8H       0.130500
     20 H3          -1.7750     0.0010     1.1960 ha         1 A8H       0.130000
     21 H4          -0.5420     0.0010     3.3320 ha         1 A8H       0.130000
     22 H5           1.9230     0.0010     3.3320 ha         1 A8H       0.130500
     23 H6           6.4400     0.1860     3.4340 hc         1 A8H       0.089700
     24 H7           3.9500    -0.0120     0.1790 hc         1 A8H       0.063700
     25 H8           3.8300     1.2010     2.9670 hc         1 A8H       0.052700
     26 H9           3.6660     2.1350     1.4670 hc         1 A8H       0.052700
     27 H10          5.8650     1.3600     0.7300 hc         1 A8H       0.054200
     28 H11          5.9840     2.1730     2.2920 hc         1 A8H       0.054200
     29 H12          3.7740    -2.1150     1.4120 hc         1 A8H       0.063200
     30 H13          3.6620    -1.2340     2.9370 hc         1 A8H       0.063200
     31 H14          5.8400    -1.9470     2.8600 hc         1 A8H       0.082700
     32 H15          8.1520    -1.3060     0.0400 hn         1 A8H       0.342500
@<TRIPOS>BOND
     1     1     2 ar
     2     1     3 ar
     3     2     6 ar
     4     3     4 ar
     5     6     8 1
     6     6     5 ar
     7     8     9 1
     8     8    11 1
     9     9    10 1
    10     4     5 ar
    11    10     7 1
    12    11    12 1
    13     7    12 1
    14     7    16 1
    15    12    13 1
    16    16    17 2
    17    16    15 1
    18    13    15 1
    19    13    14 2
    20     1    18 1
    21     2    19 1
    22     3    20 1
    23     4    21 1
    24     5    22 1
    25     7    23 1
    26     8    24 1
    27     9    25 1
    28     9    26 1
    29    10    27 1
    30    10    28 1
    31    11    29 1
    32    11    30 1
    33    12    31 1
    34    15    32 1
@<TRIPOS>SUBSTRUCTURE
     1 A8H         1 TEMP              0 ****  ****    0 ROOT
