@<TRIPOS>MOLECULE
A8H
   32    34     1     0     0
SMALL
bcc


@<TRIPOS>ATOM
      1 C12          0.0000     0.0000     0.0000 ca         1 A8H      -0.097000
      2 C13          1.3820     0.0000     0.0000 ca         1 A8H      -0.097500
      3 C11         -0.6920     0.0010     1.1970 ca         1 A8H      -0.102000
      4 C10         -0.0010     0.0010     2.3940 ca         1 A8H      -0.097000
      5 C9           1.3810     0.0010     2.3940 ca         1 A8H      -0.097500
      6 C8           2.0720     0.0000     1.1970 ca         1 A8H      -0.086300
      7 C7           6.2860     0.0670     2.3680 c3         1 A8H      -0.124700
      8 C4           3.5800    -0.0000     1.1970 c3         1 A8H       0.006600
      9 C5           4.0980     1.2500     1.9190 c3         1 A8H      -0.023400
     10 C6           5.6130     1.2930     1.7810 c3         1 A8H      -0.007400
     11 C3           4.0930    -1.2270     1.9440 c3         1 A8H      -0.011400
     12 C2           5.5890    -1.2520     2.0680 c3         1 A8H      -0.130700
     13 C1           6.2730    -1.7220     0.8020 c          1 A8H       0.623500
     14 O1           5.8370    -2.5250     0.0050 o          1 A8H      -0.614500
     15 N            7.4560    -1.0850     0.7250 ns         1 A8H      -0.173500
     16 C            7.6210    -0.1240     1.6510 c          1 A8H       0.618500
     17 O            8.6470     0.4820     1.8770 o          1 A8H      -0.614500
     18 H1          -0.5410     0.0000    -0.9380 ha         1 A8H       0.102500
     19 H2           1.9240    -0.0000    -0.9380 ha         1 A8H       0.107000
     20 H3          -1.7750     0.0010     1.1960 ha         1 A8H       0.103000
     21 H4          -0.5420     0.0010     3.3320 ha         1 A8H       0.102500
     22 H5           1.9230     0.0010     3.3320 ha         1 A8H       0.107000
     23 H6           6.4400     0.1860     3.4340 hc         1 A8H       0.058700
     24 H7           3.9500    -0.0120     0.1790 hc         1 A8H       0.038700
     25 H8           3.8300     1.2010     2.9670 hc         1 A8H       0.024700
     26 H9           3.6660     2.1350     1.4670 hc         1 A8H       0.024700
     27 H10          5.8650     1.3600     0.7300 hc         1 A8H       0.022700
     28 H11          5.9840     2.1730     2.2920 hc         1 A8H       0.022700
     29 H12          3.7740    -2.1150     1.4120 hc         1 A8H       0.035200
     30 H13          3.6620    -1.2340     2.9370 hc         1 A8H       0.035200
     31 H14          5.8400    -1.9470     2.8600 hc         1 A8H       0.051700
     32 H15          8.1520    -1.3060     0.0400 hn         1 A8H       0.192500
@<TRIPOS>BOND
     1     1     2 ar  
     2     1     3 ar  
     3     1    18 1   
     4     2     6 ar  
     5     2    19 1   
     6     3     4 ar  
     7     3    20 1   
     8     4     5 ar  
     9     4    21 1   
    10     5     6 ar  
    11     5    22 1   
    12     6     8 1   
    13     7    10 1   
    14     7    12 1   
    15     7    16 1   
    16     7    23 1   
    17     8     9 1   
    18     8    11 1   
    19     8    24 1   
    20     9    10 1   
    21     9    25 1   
    22     9    26 1   
    23    10    27 1   
    24    10    28 1   
    25    11    12 1   
    26    11    29 1   
    27    11    30 1   
    28    12    13 1   
    29    12    31 1   
    30    13    14 2   
    31    13    15 1   
    32    15    16 1   
    33    15    32 1   
    34    16    17 2   
@<TRIPOS>SUBSTRUCTURE
     1 A8H         1 TEMP              0 ****  ****    0 ROOT
