@<TRIPOS>MOLECULE
molecule
   25    26     1     0     0
SMALL
bcc


@<TRIPOS>ATOM
      1 C11          0.0000     0.0000     0.0000 ca         1 A8K      -0.154000
      2 C10          1.3800     0.0000     0.0000 ca         1 A8K      -0.089750
      3 C9           4.2930     1.4300    -1.0830 ca         1 A8K      -0.089750
      4 C8           4.6100     1.5620    -2.4200 ca         1 A8K      -0.154000
      5 C7           4.8720     0.4340    -3.1860 ca         1 A8K       0.115100
      6 C4           4.2350     0.1690    -0.5030 ca         1 A8K      -0.007600
      7 C5           4.4910    -0.9600    -1.2730 ca         1 A8K      -0.089750
      8 C6           4.8140    -0.8260    -2.6080 ca         1 A8K      -0.154000
      9 C3           2.0740     0.0000     1.2030 ca         1 A8K      -0.007600
     10 C2           1.3780     0.0000     2.4060 ca         1 A8K      -0.089750
     11 C1          -0.0020    -0.0010     2.4040 ca         1 A8K      -0.154000
     12 S            3.8360     0.0000     1.2050 ss         1 A8K      -0.201800
     13 C           -0.6940    -0.0010     1.2010 ca         1 A8K       0.115100
     14 O           -2.0540     0.0040     1.2000 oh         1 A8K      -0.522100
     15 H1          -0.5410    -0.0000    -0.9380 ha         1 A8K       0.144500
     16 H2           1.9220     0.0000    -0.9380 ha         1 A8K       0.146000
     17 H3           4.0910     2.3100    -0.4850 ha         1 A8K       0.146000
     18 H4           4.6560     2.5460    -2.8710 ha         1 A8K       0.144500
     19 H5           4.4450    -1.9440    -0.8220 ha         1 A8K       0.146000
     20 H6           5.0150    -1.7060    -3.2060 ha         1 A8K       0.144500
     21 H7           1.9190     0.0000     3.3450 ha         1 A8K       0.146000
     22 H8          -0.5450    -0.0010     3.3410 ha         1 A8K       0.144500
     23 H9           6.1180     0.6510    -4.5970 ho         1 A8K       0.421500
     24 H10         -2.3720    -0.8830     1.1990 ho         1 A8K       0.421500
     25 O1           5.1840     0.5650    -4.5020 oh         1 A8K      -0.522100
@<TRIPOS>BOND
     1    25     5 1
     2     5     8 ar
     3     5     4 ar
     4     8     7 ar
     5     4     3 ar
     6     7     6 ar
     7     3     6 ar
     8     6    12 1
     9    12     9 1
    10     9     2 ar
    11     9    10 ar
    12     2     1 ar
    13    10    11 ar
    14     1    13 ar
    15    11    13 ar
    16    13    14 1
    17     1    15 1
    18     2    16 1
    19     3    17 1
    20     4    18 1
    21     7    19 1
    22     8    20 1
    23    10    21 1
    24    11    22 1
    25    25    23 1
    26    14    24 1
@<TRIPOS>SUBSTRUCTURE
     1 A8K         1 TEMP              0 ****  ****    0 ROOT
