@<TRIPOS>MOLECULE
molecule
   47    49     1     0     0
SMALL
bcc


@<TRIPOS>ATOM
      1 C1           0.0000     0.0000     0.0000 ca         1 A8L      -0.115500
      2 C2           1.3840     0.0000     0.0000 ca         1 A8L       0.032400
      3 C3           2.0790     0.0000     1.1960 ca         1 A8L      -0.115500
      4 C4           1.3920    -0.0000     2.3950 ca         1 A8L      -0.113000
      5 C5           0.0030    -0.0010     2.3980 ca         1 A8L      -0.013200
      6 C6          -0.6910     0.0050     1.1960 ca         1 A8L      -0.113000
      7 C19         -5.9070    -1.4620     8.6290 c3         1 A8L       0.100800
      8 C16         -5.4780    -4.3110     8.3380 c3         1 A8L      -0.095900
      9 C17         -6.3300    -3.7680     9.4880 c3         1 A8L       0.140100
     10 C18         -6.9910    -2.4580     9.0490 c3         1 A8L      -0.095900
     11 C15         -4.4390    -3.2620     7.9390 c3         1 A8L       0.100800
     12 C11         -0.6740     1.0150     4.5260 cc         1 A8L      -0.112600
     13 C10         -1.4570     0.6880     5.5690 cc         1 A8L      -0.167000
     14 C8          -1.4810    -1.0070     4.0470 cd         1 A8L      -0.015600
     15 C9          -2.0020    -0.6450     5.2750 cc         1 A8L      -0.274600
     16 C13         -3.3850    -0.8780     7.4340 c3         1 A8L      -0.011200
     17 O21         -3.2840    -2.5240     5.7440 o          1 A8L      -0.540100
     18 N14         -5.1200    -2.0280     7.5270 n3         1 A8L      -0.586600
     19 N7          -0.6960    -0.0030     3.6130 na         1 A8L       0.023800
     20 Cl1          2.2500     0.0010    -1.5050 cl         1 A8L      -0.098400
     21 H1          -0.5420     0.0020    -0.9380 ha         1 A8L       0.152500
     22 H2           3.1620     0.0000     1.1930 ha         1 A8L       0.152500
     23 H3           1.9360    -0.0020     3.3310 ha         1 A8L       0.153000
     24 H4          -1.7740     0.0040     1.1960 ha         1 A8L       0.153000
     25 H11         -6.3720    -0.5400     8.3020 h1         1 A8L       0.051700
     26 H12         -5.2550    -1.2640     9.4710 h1         1 A8L       0.051700
     27 H13         -6.1150    -4.5270     7.4890 hc         1 A8L       0.058950
     28 H14         -4.9740    -5.2140     8.6580 hc         1 A8L       0.058950
     29 H15         -5.6970    -3.5820    10.3470 h1         1 A8L       0.024700
     30 H16         -7.6490    -2.6490     8.2100 hc         1 A8L       0.058950
     31 H17         -7.5580    -2.0460     9.8750 hc         1 A8L       0.058950
     32 H18         -3.7960    -3.0520     8.7860 h1         1 A8L       0.051700
     33 H19         -3.8460    -3.6380     7.1140 h1         1 A8L       0.051700
     34 H20         -1.8110     1.3650     6.3370 ha         1 A8L       0.154000
     35 H21         -2.7680    -1.0850     8.3000 h1         1 A8L       0.070200
     36 H22         -3.6490     0.1730     7.4200 h1         1 A8L       0.070200
     37 C22         -1.7520    -2.2960     3.3170 c3         1 A8L      -0.026800
     38 C23          0.0980     2.3010     4.3840 c3         1 A8L      -0.019800
     39 C12         -2.9110    -1.4290     6.1130 c          1 A8L       0.626700
     40 O20         -7.3390    -4.7210     9.8270 oh         1 A8L      -0.603800
     41 H5          -2.7670    -2.2910     2.9370 hc         1 A8L       0.059367
     42 H6          -1.0590    -2.3970     2.4900 hc         1 A8L       0.059367
     43 H7          -1.6270    -3.1300     3.9970 hc         1 A8L       0.059367
     44 H8          -0.2640     3.0220     5.1070 hc         1 A8L       0.047700
     45 H9          -0.0370     2.6940     3.3830 hc         1 A8L       0.047700
     46 H10          1.1500     2.1120     4.5580 hc         1 A8L       0.047700
     47 H24         -7.2680    -4.9410    10.7410 ho         1 A8L       0.398000
@<TRIPOS>BOND
     1    10     7 1
     2    10     9 1
     3     7    18 1
     4     9    40 1
     5     9     8 1
     6    16    18 1
     7    16    39 1
     8    18    11 1
     9    11     8 1
    10    39    17 2
    11    39    15 1
    12    13    15 1
    13    13    12 2
    14    15    14 2
    15    12    38 1
    16    12    19 1
    17    14    19 1
    18    14    37 1
    19    19     5 1
    20     6     5 ar
    21     6     1 ar
    22     5     4 ar
    23     1     2 ar
    24     4     3 ar
    25     2     3 ar
    26     2    20 1
    27     1    21 1
    28     3    22 1
    29     4    23 1
    30     6    24 1
    31    37    41 1
    32    37    42 1
    33    37    43 1
    34    38    44 1
    35    38    45 1
    36    38    46 1
    37     7    25 1
    38     7    26 1
    39     8    27 1
    40     8    28 1
    41     9    29 1
    42    10    30 1
    43    10    31 1
    44    11    32 1
    45    11    33 1
    46    13    34 1
    47    16    35 1
    48    16    36 1
    49    40    47 1
@<TRIPOS>SUBSTRUCTURE
     1 A8L         1 TEMP              0 ****  ****    0 ROOT
