@<TRIPOS>MOLECULE
A8M
   51    53     1     0     0
SMALL
bcc


@<TRIPOS>ATOM
      1 N1           0.0000     0.0000     0.0000 nz         1 A8M       0.087400
      2 C2           1.4690     0.0000     0.0000 c3         1 A8M      -0.052200
      3 C4           1.9790     0.0000     1.4420 c3         1 A8M      -0.046400
      4 C5           3.5090    -0.0010     1.4420 c3         1 A8M       0.166800
      5 N2           3.9990    -0.0000     2.8270 n3         1 A8M      -0.525600
      6 C6           3.6490     1.2520     3.5100 c3         1 A8M       0.160100
      7 C5'          5.4480    -0.2390     2.8730 c3         1 A8M       0.145800
      8 C4'          5.8780    -0.4800     4.3210 c3         1 A8M       0.153100
      9 O4'          5.3100    -1.7100     4.8020 os         1 A8M      -0.391600
     10 C1'          6.2720    -2.2930     5.7060 c3         1 A8M       0.147800
     11 N5           6.0390    -3.7330     5.8480 na         1 A8M       0.217000
     12 C11          6.0600    -4.4460     7.0210 ca         1 A8M       0.282800
     13 N4           6.2710    -4.1460     8.2980 nb         1 A8M      -0.680000
     14 C10          6.2220    -5.0820     9.2240 ca         1 A8M       0.699900
     15 N3           5.9670    -6.3460     8.9410 nb         1 A8M      -0.735000
     16 C9           5.7430    -6.7400     7.6910 ca         1 A8M       0.592200
     17 N7           5.4760    -8.0690     7.4040 nv         1 A8M      -0.479500
     18 C12          5.7840    -5.7780     6.6680 ca         1 A8M      -0.247200
     19 N6           5.6110    -5.8080     5.3250 nc         1 A8M      -0.484100
     20 C7           5.7550    -4.6070     4.8430 cd         1 A8M       0.193800
     21 C2'          7.6320    -2.0280     5.0090 c3         1 A8M       0.124100
     22 O2'          8.6970    -2.0070     5.9610 oh         1 A8M      -0.534800
     23 C3'          7.4120    -0.6250     4.3940 c3         1 A8M       0.132100
     24 O3'          7.9690     0.3850     5.2390 oh         1 A8M      -0.544800
     25 C8           5.6310    -4.2400     3.3870 c3         1 A8M       0.013600
     26 HN1         -0.3340     0.8220     0.4630 hn         1 A8M       0.224467
     27 HN1A        -0.3340    -0.0100    -0.9440 hn         1 A8M       0.224467
     28 H2           1.8300     0.8840    -0.5110 hx         1 A8M       0.084200
     29 H2A          1.8300    -0.8850    -0.5110 hx         1 A8M       0.084200
     30 H4           1.6180     0.8850     1.9530 hc         1 A8M       0.044700
     31 H4A          1.6170    -0.8840     1.9530 hc         1 A8M       0.044700
     32 H5           3.8710     0.8830     0.9310 h1         1 A8M       0.018200
     33 H5A          3.8700    -0.8860     0.9320 h1         1 A8M       0.018200
     34 H6           4.3850     1.4630     4.2760 h1         1 A8M       0.013700
     35 H6A          2.6710     1.1540     3.9660 h1         1 A8M       0.013700
     36 H6B          3.6320     2.0630     2.7920 h1         1 A8M       0.013700
     37 H5'          5.9690     0.6250     2.4800 h1         1 A8M       0.021200
     38 H5'A         5.6890    -1.1090     2.2750 h1         1 A8M       0.021200
     39 H4'          5.5570     0.3430     4.9490 h1         1 A8M       0.052700
     40 H1'          6.2370    -1.7980     6.6690 h2         1 A8M       0.083700
     41 H10          6.3990    -4.8050    10.2560 h5         1 A8M      -0.000900
     42 HN7          5.4550    -8.3810     6.4540 hn         1 A8M       0.277800
     43 HN7A         5.3130    -8.7180     8.1480 hn         1 A8M       0.277800
     44 H2'          7.8140    -2.7610     4.2330 h1         1 A8M       0.027700
     45 HO2'         9.4560    -2.4280     5.5920 ho         1 A8M       0.394000
     46 H3'          7.8420    -0.5770     3.4010 h1         1 A8M       0.010700
     47 HO3'         8.5840     0.9030     4.7460 ho         1 A8M       0.393000
     48 H8           5.4030    -5.1270     2.8090 hc         1 A8M       0.013700
     49 H8A          6.5650    -3.8140     3.0410 hc         1 A8M       0.013700
     50 H8B          4.8360    -3.5140     3.2640 hc         1 A8M       0.013700
     51 H13         -0.3340    -0.8080     0.4870 hn         1 A8M       0.224467
@<TRIPOS>BOND
     1     1     2 1   
     2     1    26 1   
     3     1    27 1   
     4     1    51 1   
     5     2     3 1   
     6     2    28 1   
     7     2    29 1   
     8     3     4 1   
     9     3    30 1   
    10     3    31 1   
    11     4     5 1   
    12     4    32 1   
    13     4    33 1   
    14     5     6 1   
    15     5     7 1   
    16     6    34 1   
    17     6    35 1   
    18     6    36 1   
    19     7     8 1   
    20     7    37 1   
    21     7    38 1   
    22     8     9 1   
    23     8    23 1   
    24     8    39 1   
    25     9    10 1   
    26    10    11 1   
    27    10    21 1   
    28    10    40 1   
    29    11    12 1   
    30    11    20 1   
    31    12    13 ar  
    32    12    18 ar  
    33    13    14 ar  
    34    14    15 ar  
    35    14    41 1   
    36    15    16 ar  
    37    16    17 1   
    38    16    18 ar  
    39    17    42 1   
    40    17    43 1   
    41    18    19 1   
    42    19    20 2   
    43    20    25 1   
    44    21    22 1   
    45    21    23 1   
    46    21    44 1   
    47    22    45 1   
    48    23    24 1   
    49    23    46 1   
    50    24    47 1   
    51    25    48 1   
    52    25    49 1   
    53    25    50 1   
@<TRIPOS>SUBSTRUCTURE
     1 A8M         1 TEMP              0 ****  ****    0 ROOT
