@<TRIPOS>MOLECULE
A8N
   57    59     1     0     0
SMALL
bcc


@<TRIPOS>ATOM
      1 C1           0.0000     0.0000     0.0000 ca         1 A8N      -0.013000
      2 C2           1.4260     0.0000     0.0000 ca         1 A8N      -0.055000
      3 C3           2.1470     0.0000     1.2030 ca         1 A8N      -0.058000
      4 C4           1.4890     0.0040     2.4960 ca         1 A8N      -0.043000
      5 C5           0.0500     0.0130     2.4750 ca         1 A8N      -0.193300
      6 C6          -0.6790     0.0090     1.2140 ca         1 A8N      -0.107000
      7 C7           2.1830    -0.0150     3.7920 ca         1 A8N       0.191600
      8 C8           1.4230     0.0580     5.0020 ca         1 A8N      -0.094300
      9 C9          -0.0400     0.0460     4.9000 ca         1 A8N      -0.118600
     10 N10         -0.6920     0.0180     3.6900 na         1 A8N       0.473900
     11 N11          3.5980    -0.1010     3.8280 nu         1 A8N      -0.558600
     12 C13          2.0270     0.1990     6.4070 c3         1 A8N       0.044900
     13 C14          1.0330     0.6410     7.5280 c3         1 A8N      -0.020400
     14 C15         -0.2520    -0.2370     7.4660 c3         1 A8N      -0.008400
     15 C16         -0.9880     0.0650     6.1150 c3         1 A8N       0.011900
     16 C17          4.3590    -1.3770     3.8940 c3         1 A8N       0.210800
     17 C18          5.7880    -1.2350     3.3160 c3         1 A8N      -0.039400
     18 C19          6.1640    -2.3710     2.3330 c3         1 A8N      -0.019400
     19 C20          7.5700    -2.9700     2.6180 c3         1 A8N      -0.028400
     20 C21          7.5920    -4.5110     2.6010 c3         1 A8N      -0.023400
     21 C22          8.7110    -5.0600     1.6830 c3         1 A8N      -0.022400
     22 C23          9.6420    -6.0430     2.4260 c3         1 A8N      -0.050400
     23 C24          9.8320    -7.3670     1.6750 c3         1 A8N      -0.017200
     24 N25         11.3260    -7.5480     1.5140 nz         1 A8N       0.049400
     25 H1          -0.5480     0.0000    -0.9340 ha         1 A8N       0.134000
     26 H2           1.9600    -0.0070    -0.9430 ha         1 A8N       0.129000
     27 H3           3.2300    -0.0000     1.1660 ha         1 A8N       0.124000
     28 H6          -1.7620     0.0090     1.2220 ha         1 A8N       0.128000
     29 H101        -1.6920    -0.0000     3.6630 hn         1 A8N       0.146700
     30 H11          4.1190     0.7530     3.8090 hn         1 A8N       0.320800
     31 H131         2.4500    -0.7570     6.6900 hc         1 A8N       0.036200
     32 H132         2.8260     0.9300     6.3590 hc         1 A8N       0.036200
     33 H141         0.7660     1.6800     7.3810 hc         1 A8N       0.035200
     34 H142         1.5060     0.5180     8.4950 hc         1 A8N       0.035200
     35 H151        -0.9010     0.0100     8.2970 hc         1 A8N       0.036700
     36 H152         0.0200    -1.2850     7.5070 hc         1 A8N       0.036700
     37 H161        -1.4490     1.0430     6.1810 hc         1 A8N       0.045200
     38 H162        -1.7590    -0.6810     5.9650 hc         1 A8N       0.045200
     39 H171         3.8260    -2.1340     3.3320 h1         1 A8N       0.010700
     40 H172         4.4290    -1.6920     4.9280 h1         1 A8N       0.010700
     41 H181         6.4960    -1.2350     4.1360 hc         1 A8N       0.026700
     42 H182         5.8590    -0.2870     2.7950 hc         1 A8N       0.026700
     43 H191         6.1510    -1.9780     1.3240 hc         1 A8N       0.017700
     44 H192         5.4260    -3.1590     2.4120 hc         1 A8N       0.017700
     45 H201         8.2610    -2.6050     1.8680 hc         1 A8N       0.022700
     46 H202         7.9010    -2.6300     3.5920 hc         1 A8N       0.022700
     47 H211         6.6350    -4.8730     2.2460 hc         1 A8N       0.023200
     48 H212         7.7540    -4.8730     3.6090 hc         1 A8N       0.023200
     49 H221         9.3000    -4.2300     1.3120 hc         1 A8N       0.027200
     50 H222         8.2570    -5.5730     0.8430 hc         1 A8N       0.027200
     51 H231        10.6100    -5.5740     2.5570 hc         1 A8N       0.038700
     52 H232         9.2200    -6.2530     3.4010 hc         1 A8N       0.038700
     53 H241         9.4170    -8.1850     2.2510 hx         1 A8N       0.086200
     54 H242         9.3560    -7.3150     0.7030 hx         1 A8N       0.086200
     55 H251        11.6950    -6.8020     0.9590 hn         1 A8N       0.230133
     56 H252        11.5090    -8.4220     1.0620 hn         1 A8N       0.230133
     57 H253        11.7620    -7.5410     2.4150 hn         1 A8N       0.230133
@<TRIPOS>BOND
     1     1     2 ar  
     2     1     6 ar  
     3     1    25 1   
     4     2     3 ar  
     5     2    26 1   
     6     3     4 ar  
     7     3    27 1   
     8     4     5 ar  
     9     4     7 ar  
    10     5     6 ar  
    11     5    10 2   
    12     6    28 1   
    13     7     8 ar  
    14     7    11 1   
    15     8     9 ar  
    16     8    12 1   
    17     9    10 1   
    18     9    15 1   
    19    10    29 1   
    20    11    16 1   
    21    11    30 1   
    22    12    13 1   
    23    12    31 1   
    24    12    32 1   
    25    13    14 1   
    26    13    33 1   
    27    13    34 1   
    28    14    15 1   
    29    14    35 1   
    30    14    36 1   
    31    15    37 1   
    32    15    38 1   
    33    16    17 1   
    34    16    39 1   
    35    16    40 1   
    36    17    18 1   
    37    17    41 1   
    38    17    42 1   
    39    18    19 1   
    40    18    43 1   
    41    18    44 1   
    42    19    20 1   
    43    19    45 1   
    44    19    46 1   
    45    20    21 1   
    46    20    47 1   
    47    20    48 1   
    48    21    22 1   
    49    21    49 1   
    50    21    50 1   
    51    22    23 1   
    52    22    51 1   
    53    22    52 1   
    54    23    24 1   
    55    23    53 1   
    56    23    54 1   
    57    24    55 1   
    58    24    56 1   
    59    24    57 1   
@<TRIPOS>SUBSTRUCTURE
     1 A8N         1 TEMP              0 ****  ****    0 ROOT
