@<TRIPOS>MOLECULE
A8O
   48    50     1     0     0
SMALL
bcc


@<TRIPOS>ATOM
      1 C13          0.0000     0.0000     0.0000 c3         1 A8O      -0.004200
      2 C12          1.5080     0.0000     0.0000 c          1 A8O       0.675700
      3 C17         -0.5300    -1.1460    -3.5470 c3         1 A8O      -0.055400
      4 C16         -0.1350    -1.2440    -2.0720 c3         1 A8O       0.131300
      5 C11          2.7050     0.0000     3.4730 cc         1 A8O      -0.324600
      6 C10          1.6660    -0.0010     2.6210 cd         1 A8O      -0.123000
      7 C8           3.6110    -0.0030     1.4360 cc         1 A8O      -0.223600
      8 C22          2.6000     0.0020     4.9770 c3         1 A8O       0.107200
      9 C5           6.8420     1.0830     4.6270 ca         1 A8O      -0.066500
     10 C4           5.5810     1.0810     4.0700 ca         1 A8O      -0.082000
     11 C19         -2.3890     0.3850    -2.8880 c3         1 A8O      -0.055400
     12 C20         -1.9380     0.2420    -1.4300 c3         1 A8O       0.131300
     13 C9           2.2390    -0.0030     1.2680 cd         1 A8O      -0.275600
     14 C24          9.0010    -0.0120     5.0090 cg         1 A8O       0.218800
     15 O14          2.1140     0.0030    -1.0510 o          1 A8O      -0.573100
     16 N15         -0.4890     0.0040    -1.3850 n3         1 A8O      -0.490600
     17 C18         -2.0370    -0.8960    -3.6510 c3         1 A8O       0.194100
     18 O21         -2.4030    -0.7480    -5.0250 oh         1 A8O      -0.595800
     19 N7           3.8710    -0.0080     2.7590 na         1 A8O       0.563800
     20 C3           5.1520    -0.0100     3.3220 ca         1 A8O      -0.176200
     21 C2           5.9920    -1.1000     3.1310 ca         1 A8O      -0.082000
     22 C1           7.2530    -1.1070     3.6840 ca         1 A8O      -0.066500
     23 C6           7.6900    -0.0110     4.4330 ca         1 A8O       0.048000
     24 N25         10.0490    -0.0170     5.4480 n1         1 A8O      -0.360800
     25 H1          -0.3610    -0.4820     0.9010 h1         1 A8O       0.052200
     26 H2          -0.3610     1.0210    -0.0320 h1         1 A8O       0.052200
     27 H3          -0.3350    -2.0990    -4.0240 hc         1 A8O       0.026450
     28 H4           0.0740    -0.3810    -4.0200 hc         1 A8O       0.026450
     29 H5           0.9420    -1.3450    -2.0060 h1         1 A8O       0.018200
     30 H6          -0.6010    -2.1230    -1.6440 h1         1 A8O       0.018200
     31 H7           0.6190     0.0380     2.8940 ha         1 A8O       0.130000
     32 H8           1.5570    -0.0270     5.2660 hc         1 A8O       0.007367
     33 H9           3.1100    -0.8660     5.3760 hc         1 A8O       0.007367
     34 H10          3.0580     0.9020     5.3700 hc         1 A8O       0.007367
     35 H11          7.1750     1.9330     5.2100 ha         1 A8O       0.120500
     36 H12          4.9220     1.9270     4.2190 ha         1 A8O       0.124000
     37 H13         -3.4670     0.4830    -2.9110 hc         1 A8O       0.026450
     38 H14         -1.9410     1.2780    -3.3050 hc         1 A8O       0.026450
     39 H15         -2.5210    -0.5400    -0.9600 h1         1 A8O       0.018200
     40 H16         -2.1200     1.1790    -0.9160 h1         1 A8O       0.018200
     41 H17          4.3960     0.7660    -0.3870 hc         1 A8O       0.019700
     42 H18          5.6190     0.1860     0.7520 hc         1 A8O       0.019700
     43 H19          4.6380    -0.9710    -0.1580 hc         1 A8O       0.019700
     44 H21         -2.5720    -1.7320    -3.2170 h1         1 A8O       0.018700
     45 H22         -2.8010     0.0970    -5.1550 ho         1 A8O       0.393000
     46 H23          5.6540    -1.9480     2.5480 ha         1 A8O       0.124000
     47 H24          7.9060    -1.9580     3.5340 ha         1 A8O       0.120500
     48 C23          4.6380    -0.0060     0.3330 c3         1 A8O       0.090200
@<TRIPOS>BOND
     1     1     2 1   
     2     1    16 1   
     3     1    25 1   
     4     1    26 1   
     5     2    13 1   
     6     2    15 2   
     7     3     4 1   
     8     3    17 1   
     9     3    27 1   
    10     3    28 1   
    11     4    16 1   
    12     4    29 1   
    13     4    30 1   
    14     5     6 2   
    15     5     8 1   
    16     5    19 1   
    17     6    13 1   
    18     6    31 1   
    19     7    13 2   
    20     7    19 1   
    21     7    48 1   
    22     8    32 1   
    23     8    33 1   
    24     8    34 1   
    25     9    10 ar  
    26     9    23 ar  
    27     9    35 1   
    28    10    20 ar  
    29    10    36 1   
    30    11    12 1   
    31    11    17 1   
    32    11    37 1   
    33    11    38 1   
    34    12    16 1   
    35    12    39 1   
    36    12    40 1   
    37    14    23 1   
    38    14    24 3   
    39    17    18 1   
    40    17    44 1   
    41    18    45 1   
    42    19    20 1   
    43    20    21 ar  
    44    21    22 ar  
    45    21    46 1   
    46    22    23 ar  
    47    22    47 1   
    48    41    48 1   
    49    42    48 1   
    50    43    48 1   
@<TRIPOS>SUBSTRUCTURE
     1 A8O         1 TEMP              0 ****  ****    0 ROOT
