@<TRIPOS>MOLECULE
molecule
   48    50     1     0     0
SMALL
bcc


@<TRIPOS>ATOM
      1 C13          0.0000     0.0000     0.0000 c3         1 A8O       0.013800
      2 C12          1.5080     0.0000     0.0000 c          1 A8O       0.618700
      3 C17         -0.5300    -1.1460    -3.5470 c3         1 A8O      -0.101900
      4 C16         -0.1350    -1.2440    -2.0720 c3         1 A8O       0.134800
      5 C11          2.7050     0.0000     3.4730 cc         1 A8O      -0.113600
      6 C10          1.6660    -0.0010     2.6210 cd         1 A8O      -0.164000
      7 C8           3.6110    -0.0030     1.4360 cc         1 A8O      -0.016600
      8 C22          2.6000     0.0020     4.9770 c3         1 A8O      -0.020800
      9 C5           6.8420     1.0830     4.6270 ca         1 A8O      -0.084000
     10 C4           5.5810     1.0810     4.0700 ca         1 A8O      -0.127000
     11 C19         -2.3890     0.3850    -2.8880 c3         1 A8O      -0.101900
     12 C20         -1.9380     0.2420    -1.4300 c3         1 A8O       0.134800
     13 C9           2.2390    -0.0030     1.2680 cd         1 A8O      -0.267600
     14 C24          9.0010    -0.0120     5.0090 cg         1 A8O       0.232800
     15 O14          2.1140     0.0030    -1.0510 o          1 A8O      -0.539100
     16 N15         -0.4890     0.0040    -1.3850 n3         1 A8O      -0.660600
     17 C18         -2.0370    -0.8960    -3.6510 c3         1 A8O       0.149100
     18 O21         -2.4030    -0.7480    -5.0250 oh         1 A8O      -0.608800
     19 N7           3.8710    -0.0080     2.7590 na         1 A8O       0.018800
     20 C3           5.1520    -0.0100     3.3220 ca         1 A8O       0.009800
     21 C2           5.9920    -1.1000     3.1310 ca         1 A8O      -0.127000
     22 C1           7.2530    -1.1070     3.6840 ca         1 A8O      -0.084000
     23 C6           7.6900    -0.0110     4.4330 ca         1 A8O      -0.012000
     24 N25         10.0490    -0.0170     5.4480 n1         1 A8O      -0.348800
     25 H1          -0.3610    -0.4820     0.9010 h1         1 A8O       0.076200
     26 H2          -0.3610     1.0210    -0.0320 h1         1 A8O       0.076200
     27 H3          -0.3350    -2.0990    -4.0240 hc         1 A8O       0.055950
     28 H4           0.0740    -0.3810    -4.0200 hc         1 A8O       0.055950
     29 H5           0.9420    -1.3450    -2.0060 h1         1 A8O       0.042950
     30 H6          -0.6010    -2.1230    -1.6440 h1         1 A8O       0.042950
     31 H7           0.6190     0.0380     2.8940 ha         1 A8O       0.155000
     32 H8           1.5570    -0.0270     5.2660 hc         1 A8O       0.048033
     33 H9           3.1100    -0.8660     5.3760 hc         1 A8O       0.048033
     34 H10          3.0580     0.9020     5.3700 hc         1 A8O       0.048033
     35 H11          7.1750     1.9330     5.2100 ha         1 A8O       0.151000
     36 H12          4.9220     1.9270     4.2190 ha         1 A8O       0.154500
     37 H13         -3.4670     0.4830    -2.9110 hc         1 A8O       0.055950
     38 H14         -1.9410     1.2780    -3.3050 hc         1 A8O       0.055950
     39 H15         -2.5210    -0.5400    -0.9600 h1         1 A8O       0.042950
     40 H16         -2.1200     1.1790    -0.9160 h1         1 A8O       0.042950
     41 H17          4.3960     0.7660    -0.3870 hc         1 A8O       0.060033
     42 H18          5.6190     0.1860     0.7520 hc         1 A8O       0.060033
     43 H19          4.6380    -0.9710    -0.1580 hc         1 A8O       0.060033
     44 H21         -2.5720    -1.7320    -3.2170 h1         1 A8O       0.052700
     45 H22         -2.8010     0.0970    -5.1550 ho         1 A8O       0.402000
     46 H23          5.6540    -1.9480     2.5480 ha         1 A8O       0.154500
     47 H24          7.9060    -1.9580     3.5340 ha         1 A8O       0.151000
     48 C23          4.6380    -0.0060     0.3330 c3         1 A8O      -0.026800
@<TRIPOS>BOND
     1    24    14 3
     2    14    23 1
     3    23     9 ar
     4    23    22 ar
     5     9    10 ar
     6    22    21 ar
     7    10    20 ar
     8    21    20 ar
     9    20    19 1
    10    48     7 1
    11    19     7 1
    12    19     5 1
    13     7    13 2
    14     5     8 1
    15     5     6 2
    16    13     6 1
    17    13     2 1
    18    15     2 2
    19     2     1 1
    20    12    11 1
    21    12    16 1
    22    11    17 1
    23     1    16 1
    24    16     4 1
    25    17    18 1
    26    17     3 1
    27     4     3 1
    28     1    25 1
    29     1    26 1
    30     3    27 1
    31     3    28 1
    32     4    29 1
    33     4    30 1
    34     6    31 1
    35     8    32 1
    36     8    33 1
    37     8    34 1
    38     9    35 1
    39    10    36 1
    40    11    37 1
    41    11    38 1
    42    12    39 1
    43    12    40 1
    44    48    41 1
    45    48    42 1
    46    48    43 1
    47    17    44 1
    48    18    45 1
    49    21    46 1
    50    22    47 1
@<TRIPOS>SUBSTRUCTURE
     1 A8O         1 TEMP              0 ****  ****    0 ROOT
