@<TRIPOS>MOLECULE
molecule
   37    38     1     0     0
SMALL
bcc


@<TRIPOS>ATOM
      1 C1           0.0000     0.0000     0.0000 c3         1 A8Q      -0.036400
      2 C7          -1.7640     0.6440     3.2950 ca         1 A8Q      -0.097000
      3 C8          -1.3030     0.0000     2.1490 cp         1 A8Q      -0.092000
      4 C9          -1.6650    -1.4160     1.8950 cp         1 A8Q       0.048000
      5 C10         -2.9950    -1.7680     1.6670 ca         1 A8Q      -0.101000
      6 C11         -3.3260    -3.0870     1.4300 ca         1 A8Q      -0.103000
      7 C12         -2.3420    -4.0600     1.4180 ca         1 A8Q      -0.201300
      8 C13         -2.7120    -5.4980     1.1590 c3         1 A8Q       0.162100
      9 C2           1.5310     0.0000     0.0000 c3         1 A8Q      -0.085600
     10 C3          -0.5010     0.6910     1.2420 ca         1 A8Q      -0.044300
     11 C4          -0.1680     2.0080     1.4840 ca         1 A8Q      -0.120000
     12 C5          -0.6270     2.6420     2.6250 ca         1 A8Q      -0.097000
     13 C6          -1.4270     1.9630     3.5250 ca         1 A8Q      -0.127000
     14 C15         -0.6770    -2.3990     1.8750 ca         1 A8Q       0.033400
     15 C14         -1.0210    -3.7170     1.6420 ca         1 A8Q      -0.099000
     16 N           -2.6520    -5.7660    -0.2830 nz         1 A8Q      -0.810600
     17 C           -0.5090     0.7420    -1.2370 c3         1 A8Q      -0.085600
     18 H1          -0.3620    -1.0210    -0.0170 hc         1 A8Q       0.036700
     19 H2          -2.3900     0.1130     4.0010 ha         1 A8Q       0.135000
     20 H3          -3.7660    -1.0080     1.6760 ha         1 A8Q       0.170000
     21 H4          -4.3590    -3.3610     1.2530 ha         1 A8Q       0.138000
     22 H5          -3.7160    -5.6830     1.5200 hx         1 A8Q       0.112700
     23 H6          -2.0160    -6.1480     1.6770 hx         1 A8Q       0.112700
     24 H7           1.8920     0.8620    -0.5470 hc         1 A8Q       0.041200
     25 H8           1.8920    -0.9050    -0.4730 hc         1 A8Q       0.041200
     26 H9           1.8920     0.0430     1.0200 hc         1 A8Q       0.041200
     27 H10          0.4590     2.5440     0.7820 ha         1 A8Q       0.145000
     28 H11         -0.3650     3.6760     2.8100 ha         1 A8Q       0.145000
     29 H12         -1.7850     2.4650     4.4160 ha         1 A8Q       0.145000
     30 H13         -0.2550    -4.4820     1.6290 ha         1 A8Q       0.146000
     31 H14         -1.7110    -5.6530    -0.6050 hn         1 A8Q       0.454467
     32 H15         -2.9550    -6.7030    -0.4620 hn         1 A8Q       0.454467
     33 H16         -3.2490    -5.1240    -0.7670 hn         1 A8Q       0.454467
     34 H17         -0.0100     1.7010    -1.3140 hc         1 A8Q       0.041200
     35 H18         -1.5770     0.8970    -1.1520 hc         1 A8Q       0.041200
     36 H19         -0.2980     0.1550    -2.1230 hc         1 A8Q       0.041200
     37 Cl           0.9820    -1.9700     2.1510 cl         1 A8Q      -0.042400
@<TRIPOS>BOND
     1    13    12 ar
     2    13     2 ar
     3    12    11 ar
     4     2     3 ar
     5    37    14 1
     6    11    10 ar
     7     3    10 ar
     8     3     4 1
     9    10     1 1
    10    14     4 ar
    11    14    15 ar
    12     4     5 ar
    13    17     1 1
    14    15     7 ar
    15     1     9 1
    16     5     6 ar
    17     7     6 ar
    18     7     8 1
    19     8    16 1
    20     1    18 1
    21     2    19 1
    22     5    20 1
    23     6    21 1
    24     8    22 1
    25     8    23 1
    26     9    24 1
    27     9    25 1
    28     9    26 1
    29    11    27 1
    30    12    28 1
    31    13    29 1
    32    15    30 1
    33    16    31 1
    34    16    32 1
    35    16    33 1
    36    17    34 1
    37    17    35 1
    38    17    36 1
@<TRIPOS>SUBSTRUCTURE
     1 A8Q         1 TEMP              0 ****  ****    0 ROOT
