@<TRIPOS>MOLECULE
A8S
   38    38     1     0     0
SMALL
bcc


@<TRIPOS>ATOM
      1 C1         -0.2790   -0.8750    1.1560 c         1 A8S      0.898800
      2 C2          0.6780    0.2490    0.8490 ce        1 A8S     -0.170200
      3 C3          1.8900    0.4250    1.3890 cf        1 A8S     -0.147200
      4 C4          2.5210   -0.5250    2.3010 cf        1 A8S     -0.060000
      5 C5          2.4090   -0.6540    3.6250 c2        1 A8S     -0.214200
      6 C6          2.7410    1.5920    1.0330 c3        1 A8S     -0.040900
      7 C7          1.5820    0.1280    4.6050 c3        1 A8S      0.246200
      8 O7          0.6350    0.9950    3.9990 oh        1 A8S     -0.620800
      9 C8          0.8240   -0.8470    5.5040 c2        1 A8S     -0.013400
     10 C9          0.6070   -0.5980    6.8090 ce        1 A8S     -0.297200
     11 C10         1.0770    0.6140    7.4810 c         1 A8S      0.583300
     12 O10         0.9540    0.7890    8.7040 o         1 A8S     -0.585100
     13 C11         1.6920    1.6600    6.5960 c3        1 A8S     -0.174400
     14 O11        -0.3770   -1.8320    0.3430 o         1 A8S     -0.835300
     15 C12         2.5110    1.0480    5.4610 c3        1 A8S     -0.031000
     16 O12        -0.9760   -0.7750    2.2150 o         1 A8S     -0.835300
     17 C13         0.2820   -2.0560    4.8480 c3        1 A8S     -0.109900
     18 C14         3.0570    2.1750    4.5950 c3        1 A8S     -0.087100
     19 C15         3.6770    0.2570    6.0350 c3        1 A8S     -0.087100
     20 H2          0.2880    0.9700    0.1120 ha        1 A8S      0.107000
     21 H4          3.1940   -1.2280    1.7700 ha        1 A8S      0.109000
     22 H5          2.9920   -1.4520    4.1210 ha        1 A8S      0.107000
     23 H6          2.3920    2.0710    0.0860 hc        1 A8S      0.024367
     24 H6A         3.8070    1.2810    0.8990 hc        1 A8S      0.024367
     25 H6B         2.6990    2.3560    1.8500 hc        1 A8S      0.024367
     26 HO7         0.1210    0.4660    3.3540 ho        1 A8S      0.472000
     27 H9          0.0430   -1.3030    7.4390 ha        1 A8S      0.135000
     28 H11         2.3340    2.3490    7.2040 hc        1 A8S      0.071700
     29 H11A        0.8540    2.2620    6.1490 hc        1 A8S      0.071700
     30 H13        -0.3130   -1.7600    3.9350 hc        1 A8S      0.073367
     31 H13A       -0.3790   -2.6370    5.5360 hc        1 A8S      0.073367
     32 H14         3.7200    2.8380    5.1990 hc        1 A8S      0.035700
     33 H14A        2.2150    2.7780    4.1770 hc        1 A8S      0.035700
     34 H14B        3.6420    1.7480    3.7440 hc        1 A8S      0.035700
     35 H15         4.3770   -0.0560    5.2240 hc        1 A8S      0.035700
     36 H15A        3.3070   -0.6540    6.5640 hc        1 A8S      0.035700
     37 H15B        4.2420    0.8890    6.7630 hc        1 A8S      0.035700
     38 H13B        1.1150   -2.7210    4.5090 hc        1 A8S      0.073367
@<TRIPOS>BOND
     1    1    2 1   
     2    1   14 1   
     3    1   16 1   
     4    2    3 2   
     5    2   20 1   
     6    3    4 1   
     7    3    6 1   
     8    4    5 2   
     9    4   21 1   
    10    5    7 1   
    11    5   22 1   
    12    6   23 1   
    13    6   24 1   
    14    6   25 1   
    15    7    8 1   
    16    7    9 1   
    17    7   15 1   
    18    8   26 1   
    19    9   10 2   
    20    9   17 1   
    21   10   11 1   
    22   10   27 1   
    23   11   12 2   
    24   11   13 1   
    25   13   15 1   
    26   13   28 1   
    27   13   29 1   
    28   15   18 1   
    29   15   19 1   
    30   17   30 1   
    31   17   31 1   
    32   17   38 1   
    33   18   32 1   
    34   18   33 1   
    35   18   34 1   
    36   19   35 1   
    37   19   36 1   
    38   19   37 1   
@<TRIPOS>SUBSTRUCTURE
     1 A8S         1 TEMP              0 ****  ****    0 ROOT
