@<TRIPOS>MOLECULE
molecule
   62    66     1     0     0
SMALL
bcc


@<TRIPOS>ATOM
      1 C12          0.0000     0.0000     0.0000 c3         1 A8T      -0.118600
      2 C11          1.5310     0.0000     0.0000 c3         1 A8T       0.204100
      3 C13          2.0390     0.0000     1.4430 c3         1 A8T      -0.118600
      4 O1           2.0070    -1.1660    -0.6730 oh         1 A8T      -0.603800
      5 C2           2.0320     1.2300    -0.7100 ca         1 A8T      -0.228600
      6 C3           2.2650     2.3950    -0.0060 ca         1 A8T       0.448200
      7 N1           2.7050     3.4790    -0.6170 nb         1 A8T      -0.740000
      8 C1           2.2730     1.2020    -2.0770 ca         1 A8T      -0.045000
      9 C5           2.7350     2.3540    -2.6900 ca         1 A8T      -0.271300
     10 C4           2.9410     3.4940    -1.9200 ca         1 A8T       0.614200
     11 N2           3.4040     4.6570    -2.5230 nh         1 A8T      -0.699300
     12 C9           3.5540     5.7370    -1.5370 c3         1 A8T       0.171800
     13 C8           3.9880     7.0200    -2.2520 c3         1 A8T       0.163800
     14 C6           4.6680     4.4160    -3.2320 c3         1 A8T       0.171800
     15 C7           5.1020     5.6980    -3.9460 c3         1 A8T       0.163800
     16 N3           5.2520     6.7790    -2.9610 nh         1 A8T      -0.723300
     17 C10          5.7130     7.9380    -3.5610 ca         1 A8T       0.554200
     18 N5           5.0020     8.5400    -4.4980 nb         1 A8T      -0.360000
     19 N4           5.3800     9.6140    -5.0860 nb         1 A8T      -0.318000
     20 C14          6.9520     8.5020    -3.1810 ca         1 A8T      -0.118300
     21 C17          7.7710     7.9380    -2.1980 ca         1 A8T      -0.085000
     22 C18          8.9540     8.5400    -1.8840 ca         1 A8T      -0.126000
     23 C19          9.3580     9.7080    -2.5280 ca         1 A8T      -0.110000
     24 C20          8.5850    10.2840    -3.4900 ca         1 A8T      -0.118000
     25 C15          7.3640     9.6920    -3.8380 ca         1 A8T      -0.128300
     26 C16          6.5100    10.2260    -4.8210 ca         1 A8T       0.383600
     27 C21          6.8870    11.4870    -5.5550 c3         1 A8T      -0.077400
     28 C22          7.6700    11.1320    -6.7930 ca         1 A8T      -0.087300
     29 C23          7.0110    10.9090    -7.9870 ca         1 A8T      -0.117000
     30 C24          7.7300    10.5820    -9.1220 ca         1 A8T      -0.127500
     31 C25          9.1070    10.4810    -9.0630 ca         1 A8T      -0.126000
     32 C26          9.7660    10.7050    -7.8680 ca         1 A8T      -0.127500
     33 C27          9.0480    11.0360    -6.7340 ca         1 A8T      -0.117000
     34 H1          -0.3610    -0.7870     0.6510 hc         1 A8T       0.044367
     35 H2          -0.3610     0.9570     0.3560 hc         1 A8T       0.044367
     36 H3          -0.3610    -0.1700    -1.0070 hc         1 A8T       0.044367
     37 H4           1.8710    -0.9740     1.8850 hc         1 A8T       0.044367
     38 H5           1.5080     0.7520     2.0130 hc         1 A8T       0.044367
     39 H6           3.0990     0.2220     1.4520 hc         1 A8T       0.044367
     40 H7           1.7600    -1.9340    -0.1850 ho         1 A8T       0.406000
     41 H8           2.0830     2.4200     1.0620 h4         1 A8T       0.023100
     42 H9           2.1030     0.2990    -2.6510 ha         1 A8T       0.155000
     43 H10          2.9300     2.3680    -3.7550 ha         1 A8T       0.145000
     44 H11          4.3060     5.4580    -0.8090 h1         1 A8T       0.056450
     45 H12          2.6060     5.9050    -1.0400 h1         1 A8T       0.056450
     46 H13          4.1280     7.8090    -1.5230 h1         1 A8T       0.058700
     47 H14          3.2260     7.3100    -2.9650 h1         1 A8T       0.058700
     48 H15          4.5280     3.6270    -3.9610 h1         1 A8T       0.056450
     49 H16          5.4310     4.1250    -2.5190 h1         1 A8T       0.056450
     50 H17          6.0500     5.5300    -4.4440 h1         1 A8T       0.058700
     51 H18          4.3500     5.9760    -4.6740 h1         1 A8T       0.058700
     52 H19          7.4690     7.0300    -1.6900 ha         1 A8T       0.158000
     53 H20          9.5890     8.1040    -1.1220 ha         1 A8T       0.135000
     54 H21         10.3030    10.1650    -2.2590 ha         1 A8T       0.133000
     55 H22          8.9110    11.1920    -3.9830 ha         1 A8T       0.141000
     56 H23          5.9880    12.0220    -5.8380 hc         1 A8T       0.067700
     57 H24          7.4930    12.1130    -4.9120 hc         1 A8T       0.067700
     58 H25          5.9320    10.9880    -8.0330 ha         1 A8T       0.134000
     59 H26          7.2140    10.4070   -10.0580 ha         1 A8T       0.130500
     60 H27          9.6700    10.2230    -9.9520 ha         1 A8T       0.129000
     61 H28         10.8450    10.6270    -7.8220 ha         1 A8T       0.130500
     62 H29          9.5640    11.2110    -5.7980 ha         1 A8T       0.134000
@<TRIPOS>BOND
     1    32    31 ar
     2    32    33 ar
     3    31    30 ar
     4    33    28 ar
     5    30    29 ar
     6    28    29 ar
     7    28    27 1
     8    27    26 1
     9    24    23 ar
    10    24    25 ar
    11    26    25 ar
    12    26    19 ar
    13    23    22 ar
    14    25    20 ar
    15    19    18 ar
    16    22    21 ar
    17    18    17 ar
    18    20    21 ar
    19    20    17 ar
    20    17    16 1
    21    16    13 1
    22    16    15 1
    23    13    12 1
    24    15    14 1
    25    12    11 1
    26    14    11 1
    27    11    10 1
    28    10     9 ar
    29    10     7 ar
    30     9     8 ar
    31     7     6 ar
    32     8     5 ar
    33     6     5 ar
    34     5     2 1
    35     2     3 1
    36     2     4 1
    37     2     1 1
    38     1    34 1
    39     1    35 1
    40     1    36 1
    41     3    37 1
    42     3    38 1
    43     3    39 1
    44     4    40 1
    45     6    41 1
    46     8    42 1
    47     9    43 1
    48    12    44 1
    49    12    45 1
    50    13    46 1
    51    13    47 1
    52    14    48 1
    53    14    49 1
    54    15    50 1
    55    15    51 1
    56    21    52 1
    57    22    53 1
    58    23    54 1
    59    24    55 1
    60    27    56 1
    61    27    57 1
    62    29    58 1
    63    30    59 1
    64    31    60 1
    65    32    61 1
    66    33    62 1
@<TRIPOS>SUBSTRUCTURE
     1 A8T         1 TEMP              0 ****  ****    0 ROOT
