@<TRIPOS>MOLECULE
A8T
   62    66     1     0     0
SMALL
bcc


@<TRIPOS>ATOM
      1 C12          0.0000     0.0000     0.0000 c3         1 A8T      -0.033100
      2 C11          1.5310     0.0000     0.0000 c3         1 A8T       0.235100
      3 C13          2.0390     0.0000     1.4430 c3         1 A8T      -0.033100
      4 O1           2.0070    -1.1660    -0.6730 oh         1 A8T      -0.589800
      5 C2           2.0320     1.2300    -0.7100 ca         1 A8T      -0.241600
      6 C3           2.2650     2.3950    -0.0060 ca         1 A8T       0.429200
      7 N1           2.7050     3.4790    -0.6170 nb         1 A8T      -0.628000
      8 C1           2.2730     1.2020    -2.0770 ca         1 A8T      -0.016000
      9 C5           2.7350     2.3540    -2.6900 ca         1 A8T      -0.249300
     10 C4           2.9410     3.4940    -1.9200 ca         1 A8T       0.490200
     11 N2           3.4040     4.6570    -2.5230 nh         1 A8T      -0.468300
     12 C9           3.5540     5.7370    -1.5370 c3         1 A8T       0.142800
     13 C8           3.9880     7.0200    -2.2520 c3         1 A8T       0.145800
     14 C6           4.6680     4.4160    -3.2320 c3         1 A8T       0.142800
     15 C7           5.1020     5.6980    -3.9460 c3         1 A8T       0.145800
     16 N3           5.2520     6.7790    -2.9610 nh         1 A8T      -0.514300
     17 C10          5.7130     7.9380    -3.5610 ca         1 A8T       0.465200
     18 N5           5.0020     8.5400    -4.4980 nb         1 A8T      -0.319000
     19 N4           5.3800     9.6140    -5.0860 nb         1 A8T      -0.279000
     20 C14          6.9520     8.5020    -3.1810 ca         1 A8T      -0.121300
     21 C17          7.7710     7.9380    -2.1980 ca         1 A8T      -0.059000
     22 C18          8.9540     8.5400    -1.8840 ca         1 A8T      -0.096000
     23 C19          9.3580     9.7080    -2.5280 ca         1 A8T      -0.080000
     24 C20          8.5850    10.2840    -3.4900 ca         1 A8T      -0.098000
     25 C15          7.3640     9.6920    -3.8380 ca         1 A8T      -0.125300
     26 C16          6.5100    10.2260    -4.8210 ca         1 A8T       0.359600
     27 C21          6.8870    11.4870    -5.5550 c3         1 A8T      -0.011400
     28 C22          7.6700    11.1320    -6.7930 ca         1 A8T      -0.093300
     29 C23          7.0110    10.9090    -7.9870 ca         1 A8T      -0.096000
     30 C24          7.7300    10.5820    -9.1220 ca         1 A8T      -0.098500
     31 C25          9.1070    10.4810    -9.0630 ca         1 A8T      -0.101000
     32 C26          9.7660    10.7050    -7.8680 ca         1 A8T      -0.098500
     33 C27          9.0480    11.0360    -6.7340 ca         1 A8T      -0.096000
     34 H1          -0.3610    -0.7870     0.6510 hc         1 A8T       0.013700
     35 H2          -0.3610     0.9570     0.3560 hc         1 A8T       0.013700
     36 H3          -0.3610    -0.1700    -1.0070 hc         1 A8T       0.013700
     37 H4           1.8710    -0.9740     1.8850 hc         1 A8T       0.013700
     38 H5           1.5080     0.7520     2.0130 hc         1 A8T       0.013700
     39 H6           3.0990     0.2220     1.4520 hc         1 A8T       0.013700
     40 H7           1.7600    -1.9340    -0.1850 ho         1 A8T       0.396000
     41 H8           2.0830     2.4200     1.0620 h4         1 A8T      -0.013900
     42 H9           2.1030     0.2990    -2.6510 ha         1 A8T       0.123000
     43 H10          2.9300     2.3680    -3.7550 ha         1 A8T       0.124000
     44 H11          4.3060     5.4580    -0.8090 h1         1 A8T       0.027950
     45 H12          2.6060     5.9050    -1.0400 h1         1 A8T       0.027950
     46 H13          4.1280     7.8090    -1.5230 h1         1 A8T       0.027700
     47 H14          3.2260     7.3100    -2.9650 h1         1 A8T       0.027700
     48 H15          4.5280     3.6270    -3.9610 h1         1 A8T       0.027950
     49 H16          5.4310     4.1250    -2.5190 h1         1 A8T       0.027950
     50 H17          6.0500     5.5300    -4.4440 h1         1 A8T       0.027700
     51 H18          4.3500     5.9760    -4.6740 h1         1 A8T       0.027700
     52 H19          7.4690     7.0300    -1.6900 ha         1 A8T       0.128000
     53 H20          9.5890     8.1040    -1.1220 ha         1 A8T       0.106000
     54 H21         10.3030    10.1650    -2.2590 ha         1 A8T       0.104000
     55 H22          8.9110    11.1920    -3.9830 ha         1 A8T       0.123000
     56 H23          5.9880    12.0220    -5.8380 hc         1 A8T       0.033200
     57 H24          7.4930    12.1130    -4.9120 hc         1 A8T       0.033200
     58 H25          5.9320    10.9880    -8.0330 ha         1 A8T       0.111000
     59 H26          7.2140    10.4070   -10.0580 ha         1 A8T       0.103000
     60 H27          9.6700    10.2230    -9.9520 ha         1 A8T       0.102000
     61 H28         10.8450    10.6270    -7.8220 ha         1 A8T       0.103000
     62 H29          9.5640    11.2110    -5.7980 ha         1 A8T       0.111000
@<TRIPOS>BOND
     1     1     2 1   
     2     1    34 1   
     3     1    35 1   
     4     1    36 1   
     5     2     3 1   
     6     2     4 1   
     7     2     5 1   
     8     3    37 1   
     9     3    38 1   
    10     3    39 1   
    11     4    40 1   
    12     5     6 ar  
    13     5     8 ar  
    14     6     7 ar  
    15     6    41 1   
    16     7    10 ar  
    17     8     9 ar  
    18     8    42 1   
    19     9    10 ar  
    20     9    43 1   
    21    10    11 1   
    22    11    12 1   
    23    11    14 1   
    24    12    13 1   
    25    12    44 1   
    26    12    45 1   
    27    13    16 1   
    28    13    46 1   
    29    13    47 1   
    30    14    15 1   
    31    14    48 1   
    32    14    49 1   
    33    15    16 1   
    34    15    50 1   
    35    15    51 1   
    36    16    17 1   
    37    17    18 ar  
    38    17    20 ar  
    39    18    19 ar  
    40    19    26 ar  
    41    20    21 ar  
    42    20    25 ar  
    43    21    22 ar  
    44    21    52 1   
    45    22    23 ar  
    46    22    53 1   
    47    23    24 ar  
    48    23    54 1   
    49    24    25 ar  
    50    24    55 1   
    51    25    26 ar  
    52    26    27 1   
    53    27    28 1   
    54    27    56 1   
    55    27    57 1   
    56    28    29 ar  
    57    28    33 ar  
    58    29    30 ar  
    59    29    58 1   
    60    30    31 ar  
    61    30    59 1   
    62    31    32 ar  
    63    31    60 1   
    64    32    33 ar  
    65    32    61 1   
    66    33    62 1   
@<TRIPOS>SUBSTRUCTURE
     1 A8T         1 TEMP              0 ****  ****    0 ROOT
