@<TRIPOS>MOLECULE
A8V
   43    44     1     0     0
SMALL
bcc


@<TRIPOS>ATOM
      1 O1          0.0090    0.0740   -0.0870 oh        1 A8V     -0.600800
      2 C2          1.4240   -0.0280    0.0380 c3        1 A8V      0.187400
      3 C1          2.0220    1.1360   -0.7500 c3        1 A8V     -0.075400
      4 C           1.7080    0.9930   -2.2290 c3        1 A8V      0.132400
      5 O           2.3240    2.0880   -2.8900 oh        1 A8V     -0.603800
      6 C3          1.8690    0.0180    1.4730 ca        1 A8V     -0.098300
      7 C15         3.0300   -0.6530    1.8510 ca        1 A8V     -0.149000
      8 C7          3.4480   -0.6030    3.1950 ca        1 A8V      0.129100
      9 C6          2.7090    0.1070    4.1480 ca        1 A8V     -0.201000
     10 C5          1.5500    0.7720    3.7490 ca        1 A8V     -0.095000
     11 C4          1.1280    0.7320    2.4230 ca        1 A8V     -0.154000
     12 O2          4.6070   -1.3050    3.4590 os        1 A8V     -0.330900
     13 C8          5.0860   -1.2350    4.8090 c3        1 A8V      0.130400
     14 C9          6.3800   -2.0430    4.8420 c3        1 A8V     -0.067700
     15 C14         7.5080   -1.2870    4.1560 c3        1 A8V     -0.073400
     16 C13         8.8060   -2.0630    4.2310 c3        1 A8V     -0.075400
     17 C12         9.1690   -2.3910    5.6640 c3        1 A8V     -0.078400
     18 C11         8.0450   -3.1310    6.3600 c3        1 A8V     -0.075400
     19 C10         6.7430   -2.3590    6.2860 c3        1 A8V     -0.073400
     20 H1         -0.3730   -0.5730    0.5180 ho        1 A8V      0.406000
     21 H2          1.7520   -1.0070   -0.4220 h1        1 A8V      0.040700
     22 H3          1.6020    2.1030   -0.3720 hc        1 A8V      0.068200
     23 H4          3.1310    1.1520   -0.5940 hc        1 A8V      0.068200
     24 H5          2.1240    0.0300   -2.6320 h1        1 A8V      0.028200
     25 H6          0.5970    1.0080   -2.3910 h1        1 A8V      0.028200
     26 H7          2.0220    2.0590   -3.8050 ho        1 A8V      0.399000
     27 H8          3.6280   -1.2180    1.1210 ha        1 A8V      0.150000
     28 H9          3.0270    0.1500    5.1990 ha        1 A8V      0.138000
     29 H10         0.9660    1.3350    4.4920 ha        1 A8V      0.134000
     30 H11         0.2170    1.2630    2.1090 ha        1 A8V      0.146000
     31 H12         5.2690   -0.1650    5.0890 h1        1 A8V      0.040200
     32 H13         4.3210   -1.6830    5.4960 h1        1 A8V      0.040200
     33 H14         6.2080   -3.0090    4.2880 hc        1 A8V      0.068700
     34 H15         7.2280   -1.1080    3.0850 hc        1 A8V      0.043450
     35 H16         7.6390   -0.2870    4.6450 hc        1 A8V      0.043450
     36 H17         8.7090   -3.0130    3.6420 hc        1 A8V      0.041450
     37 H18         9.6280   -1.4600    3.7640 hc        1 A8V      0.041450
     38 H19        10.0980   -3.0190    5.6830 hc        1 A8V      0.039700
     39 H20         9.3920   -1.4430    6.2200 hc        1 A8V      0.039700
     40 H21         7.9090   -4.1370    5.8830 hc        1 A8V      0.041450
     41 H22         8.3150   -3.3010    7.4340 hc        1 A8V      0.041450
     42 H23         6.8400   -1.4020    6.8630 hc        1 A8V      0.043450
     43 H24         5.9230   -2.9600    6.7580 hc        1 A8V      0.043450
@<TRIPOS>BOND
     1    1    2 1   
     2    1   20 1   
     3    2    3 1   
     4    2    6 1   
     5    2   21 1   
     6    3    4 1   
     7    3   22 1   
     8    3   23 1   
     9    4    5 1   
    10    4   24 1   
    11    4   25 1   
    12    5   26 1   
    13    6    7 ar  
    14    6   11 ar  
    15    7    8 ar  
    16    7   27 1   
    17    8    9 ar  
    18    8   12 1   
    19    9   10 ar  
    20    9   28 1   
    21   10   11 ar  
    22   10   29 1   
    23   11   30 1   
    24   12   13 1   
    25   13   14 1   
    26   13   31 1   
    27   13   32 1   
    28   14   15 1   
    29   14   19 1   
    30   14   33 1   
    31   15   16 1   
    32   15   34 1   
    33   15   35 1   
    34   16   17 1   
    35   16   36 1   
    36   16   37 1   
    37   17   18 1   
    38   17   38 1   
    39   17   39 1   
    40   18   19 1   
    41   18   40 1   
    42   18   41 1   
    43   19   42 1   
    44   19   43 1   
@<TRIPOS>SUBSTRUCTURE
     1 A8V         1 TEMP              0 ****  ****    0 ROOT
