@<TRIPOS>MOLECULE
molecule
   43    44     1     0     0
SMALL
bcc


@<TRIPOS>ATOM
      1 O1           0.0000     0.0000     0.0000 oh         1 A8V      -0.603800
      2 C2           1.4290     0.0000     0.0000 c3         1 A8V       0.195400
      3 C1           1.9400     1.2480    -0.7220 c3         1 A8V      -0.077400
      4 C            1.5350     1.1870    -2.1950 c3         1 A8V       0.139400
      5 O            2.0120     2.3520    -2.8700 oh         1 A8V      -0.610800
      6 C3           1.9310     0.0000     1.4210 ca         1 A8V      -0.081300
      7 C15          3.0850    -0.6870     1.7450 ca         1 A8V      -0.156000
      8 C7           3.5470    -0.6870     3.0540 ca         1 A8V       0.142100
      9 C6           2.8490     0.0040     4.0330 ca         1 A8V      -0.218000
     10 C5           1.6950     0.6900     3.7030 ca         1 A8V      -0.094000
     11 C4           1.2410     0.6920     2.3980 ca         1 A8V      -0.139000
     12 O2           4.6820    -1.3620     3.3740 os         1 A8V      -0.331900
     13 C8           5.0980    -1.3180     4.7410 c3         1 A8V       0.141400
     14 C9           6.3840    -2.1290     4.9090 c3         1 A8V      -0.069700
     15 C14          7.5140    -1.4640     4.1200 c3         1 A8V      -0.074400
     16 C13          8.8000    -2.2760     4.2880 c3         1 A8V      -0.078400
     17 C12          9.1770    -2.3320     5.7700 c3         1 A8V      -0.081400
     18 C11          8.0480    -2.9980     6.5590 c3         1 A8V      -0.078400
     19 C10          6.7620    -2.1860     6.3910 c3         1 A8V      -0.074400
     20 H1          -0.3140    -0.8720    -0.1720 ho         1 A8V       0.404000
     21 H2           1.7900    -0.8850    -0.5100 h1         1 A8V       0.036700
     22 H3           3.0200     1.2930    -0.6460 hc         1 A8V       0.068700
     23 H4           1.5090     2.1310    -0.2660 hc         1 A8V       0.068700
     24 H5           1.9660     0.3040    -2.6520 h1         1 A8V       0.022200
     25 H6           0.4550     1.1420    -2.2720 h1         1 A8V       0.022200
     26 H7           1.7650     2.3120    -3.7790 ho         1 A8V       0.402000
     27 H8           3.6290    -1.2260     0.9780 ha         1 A8V       0.140000
     28 H9           3.2060     0.0040     5.0560 ha         1 A8V       0.134000
     29 H10          1.1510     1.2320     4.4670 ha         1 A8V       0.131000
     30 H11          0.3360     1.2300     2.1420 ha         1 A8V       0.147000
     31 H12          5.2790    -0.2900     5.0300 h1         1 A8V       0.036700
     32 H13          4.3210    -1.7380     5.3690 h1         1 A8V       0.036700
     33 H14          6.2320    -3.1360     4.5390 hc         1 A8V       0.064700
     34 H15          7.6710    -0.4600     4.4940 hc         1 A8V       0.045450
     35 H16          7.2460    -1.4270     3.0710 hc         1 A8V       0.045450
     36 H17          9.5990    -1.8040     3.7300 hc         1 A8V       0.042450
     37 H18          8.6410    -3.2820     3.9180 hc         1 A8V       0.042450
     38 H19          9.3310    -1.3260     6.1400 hc         1 A8V       0.041200
     39 H20         10.0870    -2.9090     5.8880 hc         1 A8V       0.041200
     40 H21          8.3150    -3.0350     7.6080 hc         1 A8V       0.042450
     41 H22          7.8910    -4.0020     6.1850 hc         1 A8V       0.042450
     42 H23          5.9620    -2.6600     6.9480 hc         1 A8V       0.045450
     43 H24          6.9200    -1.1810     6.7610 hc         1 A8V       0.045450
@<TRIPOS>BOND
     1    10     9 ar
     2    10    11 ar
     3     9     8 ar
     4    11     6 ar
     5     8    12 1
     6     8     7 ar
     7     6     7 ar
     8     6     2 1
     9     1     2 1
    10    12    13 1
    11     2     3 1
    12     3     4 1
    13    15    16 1
    14    15    14 1
    15    16    17 1
    16     4     5 1
    17    13    14 1
    18    14    19 1
    19    17    18 1
    20    19    18 1
    21     1    20 1
    22     2    21 1
    23     3    22 1
    24     3    23 1
    25     4    24 1
    26     4    25 1
    27     5    26 1
    28     7    27 1
    29     9    28 1
    30    10    29 1
    31    11    30 1
    32    13    31 1
    33    13    32 1
    34    14    33 1
    35    15    34 1
    36    15    35 1
    37    16    36 1
    38    16    37 1
    39    17    38 1
    40    17    39 1
    41    18    40 1
    42    18    41 1
    43    19    42 1
    44    19    43 1
@<TRIPOS>SUBSTRUCTURE
     1 A8V         1 TEMP              0 ****  ****    0 ROOT
