@<TRIPOS>MOLECULE
molecule
   49    52     1     0     0
SMALL
bcc


@<TRIPOS>ATOM
      1 F            0.0000     0.0000     0.0000 f          1 A8X      -0.134900
      2 C11          7.2290     3.4300     1.3510 c3         1 A8X       0.008800
      3 C12          6.0720     2.4450     1.1390 c3         1 A8X       0.236500
      4 C16          1.3500     0.0000     0.0000 ca         1 A8X       0.184900
      5 C15          2.0430     0.0000     1.1990 ca         1 A8X      -0.192500
      6 C14          3.4260    -0.0010     1.1980 ca         1 A8X      -0.002500
      7 C17          2.0440    -0.0060    -1.1980 ca         1 A8X      -0.192500
      8 C18          3.4250    -0.0060    -1.1970 ca         1 A8X      -0.002500
      9 C13          4.1170    -0.0000    -0.0000 ca         1 A8X      -0.331500
     10 S            5.8790     0.0010     0.0000 sy         1 A8X       1.427200
     11 O2           6.2800    -0.5380     1.2520 o          1 A8X      -0.642800
     12 O3           6.2800    -0.5490    -1.2470 o          1 A8X      -0.642800
     13 N1           6.3680     1.5820    -0.0060 n7         1 A8X      -0.910100
     14 C19          4.7830     3.2280     0.8720 c3         1 A8X      -0.099400
     15 C20          4.3400     3.9350     2.1580 c3         1 A8X      -0.012200
     16 C3           5.5190     4.6940     2.7210 cc         1 A8X      -0.042300
     17 C4           6.8000     4.4650     2.3590 cd         1 A8X      -0.191400
     18 C5           7.6250     5.3860     3.1130 ca         1 A8X      -0.097800
     19 C10          6.7340     6.1420     3.9180 ca         1 A8X      -0.030200
     20 C9           7.2160     7.1290     4.7740 ca         1 A8X      -0.124000
     21 C8           8.5860     7.3270     4.7940 ca         1 A8X      -0.130000
     22 C7           9.4520     6.5860     4.0080 ca         1 A8X      -0.169000
     23 C6           9.0050     5.6080     3.1530 ca         1 A8X      -0.093000
     24 N            5.4710     5.6950     3.6550 na         1 A8X      -0.037400
     25 C2           4.2490     6.2100     4.2780 c3         1 A8X       0.047300
     26 C1           3.9500     5.4120     5.5480 c3         1 A8X      -0.206400
     27 C            2.6920     5.9410     6.1900 c          1 A8X       0.892600
     28 O            2.0970     6.8620     5.6810 o          1 A8X      -0.846800
     29 O1           2.2350     5.3900     7.3240 o          1 A8X      -0.846800
     30 H3           5.9470     1.8410     2.0300 h1         1 A8X       0.078700
     31 H4           1.5020    -0.0010     2.1380 ha         1 A8X       0.152500
     32 H5           3.9680     0.0020     2.1350 ha         1 A8X       0.158000
     33 H6           1.5030    -0.0110    -2.1370 ha         1 A8X       0.152500
     34 H7           3.9670    -0.0090    -2.1350 ha         1 A8X       0.158000
     35 H8           6.8940     1.9400    -0.7790 hn         1 A8X       0.452800
     36 H9           4.9630     3.9650     0.0990 hc         1 A8X       0.047200
     37 H10          4.0060     2.5440     0.5510 hc         1 A8X       0.047200
     38 H11          4.0030     3.2000     2.8790 hc         1 A8X       0.064200
     39 H12          3.5370     4.6270     1.9330 hc         1 A8X       0.064200
     40 H13          6.5500     7.7160     5.3950 ha         1 A8X       0.145000
     41 H14          8.9950     8.0860     5.4500 ha         1 A8X       0.116000
     42 H15         10.5150     6.7860     4.0670 ha         1 A8X       0.110000
     43 H16          9.6900     5.0330     2.5410 ha         1 A8X       0.122000
     44 H17          4.3860     7.2540     4.5310 h1         1 A8X       0.068700
     45 H18          3.4220     6.1110     3.5860 h1         1 A8X       0.068700
     46 H19          4.7770     5.5120     6.2410 hc         1 A8X       0.042700
     47 H20          3.8150     4.3670     5.2950 hc         1 A8X       0.042700
     48 H1           7.4690     3.9150     0.4130 hc         1 A8X       0.046200
     49 H2           8.0950     2.8970     1.7250 hc         1 A8X       0.046200
@<TRIPOS>BOND
     1     7     8 ar
     2     7     4 ar
     3     8     9 ar
     4    12    10 2
     5     1     4 1
     6     4     5 ar
     7     9    10 1
     8     9     6 ar
     9    10    13 1
    10    10    11 2
    11    13     3 1
    12     5     6 ar
    13    14     3 1
    14    14    15 1
    15     3     2 1
    16     2    17 1
    17    15    16 1
    18    17    16 2
    19    17    18 1
    20    16    24 1
    21    25    24 1
    22    25    26 1
    23    18    23 ar
    24    18    19 ar
    25    24    19 1
    26    23    22 ar
    27    26    27 1
    28    19    20 ar
    29    28    27 1
    30    27    29 1
    31    22    21 ar
    32    20    21 ar
    33     2    48 1
    34     2    49 1
    35     3    30 1
    36     5    31 1
    37     6    32 1
    38     7    33 1
    39     8    34 1
    40    13    35 1
    41    14    36 1
    42    14    37 1
    43    15    38 1
    44    15    39 1
    45    20    40 1
    46    21    41 1
    47    22    42 1
    48    23    43 1
    49    25    44 1
    50    25    45 1
    51    26    46 1
    52    26    47 1
@<TRIPOS>SUBSTRUCTURE
     1 A8X         1 TEMP              0 ****  ****    0 ROOT
