@<TRIPOS>MOLECULE
molecule
   58    61     1     0     0
SMALL
bcc


@<TRIPOS>ATOM
      1 C2           0.0000     0.0000     0.0000 c3         1 A8Z      -0.091400
      2 C5           1.5280    -1.2480     2.1640 c3         1 A8Z      -0.051700
      3 C4          -0.0010    -1.2480     2.1640 c3         1 A8Z      -0.085400
      4 C6           2.0360    -1.2490     3.6080 c3         1 A8Z      -0.079400
      5 C7           3.5660    -1.2470     3.6110 c3         1 A8Z      -0.073400
      6 C8           4.0740     0.0060     2.8950 c3         1 A8Z      -0.063700
      7 C9           3.5690    -0.0050     1.4430 c3         1 A8Z      -0.052700
      8 C1           1.5300     0.0000     0.0000 c3         1 A8Z      -0.065400
      9 C10          2.0400     0.0000     1.4430 c3         1 A8Z      -0.052000
     10 C11          4.0940     1.1940     0.6580 c3         1 A8Z      -0.080400
     11 C12          5.6290     1.2730     0.7180 c3         1 A8Z      -0.065400
     12 C13          6.0200     1.3440     2.1810 c3         1 A8Z      -0.059000
     13 C14          5.5900     0.0060     2.8430 c3         1 A8Z      -0.062700
     14 C15          6.3060     0.0850     4.1970 c3         1 A8Z      -0.075400
     15 C16          7.7010     0.6540     3.8200 c3         1 A8Z      -0.074400
     16 C17          7.5140     1.4200     2.4850 c3         1 A8Z      -0.159700
     17 C18          5.2960     2.5110     2.8540 c3         1 A8Z      -0.102100
     18 C19          1.5320     1.2500     2.1640 c3         1 A8Z      -0.093100
     19 C20          7.9420     2.8550     2.6400 c          1 A8Z       0.567100
     20 C3          -0.5110    -1.2480     0.7210 c3         1 A8Z       0.147100
     21 O2          -0.0330    -2.4160     0.0480 oh         1 A8Z      -0.604800
     22 C21          8.3470     3.6570     1.4300 c3         1 A8Z       0.041400
     23 H11         -0.3600     0.8840     0.5130 hc         1 A8Z       0.045200
     24 H12         -0.3600    -0.0020    -1.0220 hc         1 A8Z       0.045200
     25 H14         -0.3620    -2.1330     2.6730 hc         1 A8Z       0.047200
     26 H13         -0.3610    -0.3610     2.6720 hc         1 A8Z       0.047200
     27 H15          1.6770    -2.1360     4.1150 hc         1 A8Z       0.041200
     28 H16          1.6740    -0.3640     4.1170 hc         1 A8Z       0.041200
     29 H18          3.9290    -2.1280     3.0950 hc         1 A8Z       0.042700
     30 H17          3.9240    -1.2470     4.6330 hc         1 A8Z       0.042700
     31 H2           3.7200     0.8940     3.4040 hc         1 A8Z       0.067700
     32 H3           3.9140    -0.9120     0.9620 hc         1 A8Z       0.053700
     33 H9           1.8890     0.8860    -0.5090 hc         1 A8Z       0.049700
     34 H10          1.8890    -0.8860    -0.5090 hc         1 A8Z       0.049700
     35 H19          3.7860     1.1020    -0.3760 hc         1 A8Z       0.046700
     36 H20          3.6770     2.1010     1.0790 hc         1 A8Z       0.046700
     37 H21          6.0600     0.3890     0.2650 hc         1 A8Z       0.040700
     38 H22          5.9710     2.1630     0.2030 hc         1 A8Z       0.040700
     39 H4           5.9540    -0.8360     2.2680 hc         1 A8Z       0.057700
     40 H23          5.7860     0.7610     4.8650 hc         1 A8Z       0.049700
     41 H24          6.4020    -0.9010     4.6360 hc         1 A8Z       0.049700
     42 H26          8.0450     1.3330     4.5910 hc         1 A8Z       0.057200
     43 H25          8.4080    -0.1560     3.6860 hc         1 A8Z       0.057200
     44 H5           8.0790     0.9370     1.6960 hc         1 A8Z       0.062700
     45 H31          5.6220     2.5940     3.8840 hc         1 A8Z       0.047367
     46 H30          5.5260     3.4300     2.3280 hc         1 A8Z       0.047367
     47 H32          4.2270     2.3370     2.8270 hc         1 A8Z       0.047367
     48 H8           0.4520     1.2070     2.2430 hc         1 A8Z       0.036700
     49 H6           1.8180     2.1320     1.6030 hc         1 A8Z       0.036700
     50 H7           1.9650     1.2970     3.1550 hc         1 A8Z       0.036700
     51 H           -1.5940    -1.2440     0.7220 h1         1 A8Z       0.026700
     52 H29          9.2410     5.3770     1.1640 ho         1 A8Z       0.402000
     53 H33         -0.7660    -2.9130    -0.2760 ho         1 A8Z       0.397000
     54 H28          7.5170     3.7060     0.7350 h1         1 A8Z       0.043200
     55 H27          9.1930     3.1820     0.9490 h1         1 A8Z       0.043200
     56 H1           1.8890    -2.1330     1.6540 hc         1 A8Z       0.070700
     57 O            7.9620     3.3640     3.7360 o          1 A8Z      -0.495100
     58 O1           8.7090     4.9790     1.8330 oh         1 A8Z      -0.583800
@<TRIPOS>BOND
     1     3    20 1
     2     3     2 1
     3    20    21 1
     4    20     1 1
     5     4     2 1
     6     4     5 1
     7     1     8 1
     8     2     9 1
     9    18     9 1
    10     5     6 1
    11     9     8 1
    12     9     7 1
    13     6     7 1
    14     6    13 1
    15     7    10 1
    16    13    14 1
    17    13    12 1
    18    10    11 1
    19    14    15 1
    20    12    17 1
    21    12    11 1
    22    12    16 1
    23    15    16 1
    24    16    19 1
    25    19    57 2
    26    19    22 1
    27    22    58 1
    28     1    23 1
    29     1    24 1
    30     2    56 1
    31     3    25 1
    32     3    26 1
    33     4    27 1
    34     4    28 1
    35     5    29 1
    36     5    30 1
    37     6    31 1
    38     7    32 1
    39     8    33 1
    40     8    34 1
    41    10    35 1
    42    10    36 1
    43    11    37 1
    44    11    38 1
    45    13    39 1
    46    14    40 1
    47    14    41 1
    48    15    42 1
    49    15    43 1
    50    16    44 1
    51    17    45 1
    52    17    46 1
    53    17    47 1
    54    18    48 1
    55    18    49 1
    56    18    50 1
    57    20    51 1
    58    58    52 1
    59    21    53 1
    60    22    54 1
    61    22    55 1
@<TRIPOS>SUBSTRUCTURE
     1 A8Z         1 TEMP              0 ****  ****    0 ROOT
