@<TRIPOS>MOLECULE
molecule
   38    39     1     0     0
SMALL
bcc


@<TRIPOS>ATOM
      1 C4           0.0000     0.0000     0.0000 ca         1 A90      -0.125500
      2 C14         -0.7520     0.0040     3.7000 c3         1 A90      -0.157100
      3 C5           1.3820     0.0000     0.0000 ca         1 A90      -0.134300
      4 C6           2.1350    -0.0010    -1.3060 c3         1 A90      -0.029100
      5 C11          5.5750     5.8430    -1.5060 ca         1 A90       0.076400
      6 C7           2.3910     1.4410    -1.7480 c3         1 A90       0.229800
      7 C8           4.1340     4.0000    -2.9800 ca         1 A90      -0.312500
      8 C9           3.4790     4.8540    -2.1120 ca         1 A90      -0.017500
      9 C10          4.1990     5.7750    -1.3760 ca         1 A90      -0.147500
     10 C12          6.2290     4.9870    -2.3760 ca         1 A90      -0.147500
     11 C13          5.5080     4.0670    -3.1120 ca         1 A90      -0.017500
     12 C3          -0.6910     0.0010     1.1980 ca         1 A90      -0.122500
     13 O2          -1.6640    -1.6600     5.2800 o          1 A90      -0.842300
     14 C15         -1.0040    -1.4170     4.1360 c          1 A90       0.894600
     15 O3          -0.6130    -2.3350     3.4580 o          1 A90      -0.842300
     16 C2           0.0010     0.0020     2.3950 ca         1 A90       0.002700
     17 C1           1.3840     0.0010     2.3940 ca         1 A90      -0.122500
     18 C            2.0740     0.0000     1.1970 ca         1 A90      -0.125500
     19 N            3.1220     1.4410    -3.0160 n7         1 A90      -0.914100
     20 S            3.2160     2.8260    -3.9200 sy         1 A90       1.422200
     21 O            1.8920     3.3330    -4.0140 o          1 A90      -0.641300
     22 O1           4.0100     2.5110    -5.0560 o          1 A90      -0.641300
     23 H1          -0.5420    -0.0010    -0.9380 ha         1 A90       0.110000
     24 H2          -0.1660     0.5150     4.4540 hc         1 A90       0.040700
     25 H3          -1.6990     0.5150     3.5700 hc         1 A90       0.040700
     26 H4           3.0810    -0.5120    -1.1770 hc         1 A90       0.046200
     27 H5           1.5490    -0.5110    -2.0600 hc         1 A90       0.046200
     28 H6           1.4450     1.9530    -1.8760 h1         1 A90       0.050700
     29 H7           2.9780     1.9510    -0.9930 h1         1 A90       0.050700
     30 H8           2.4010     4.8010    -2.0100 ha         1 A90       0.158500
     31 H9           3.6860     6.4440    -0.6950 ha         1 A90       0.147500
     32 H10          7.3060     5.0400    -2.4790 ha         1 A90       0.147500
     33 H11          6.0190     3.3970    -3.7930 ha         1 A90       0.158500
     34 H12         -1.7740     0.0010     1.1990 ha         1 A90       0.130500
     35 H14          1.9260     0.0010     3.3320 ha         1 A90       0.130500
     36 H15          3.1570    -0.0000     1.1970 ha         1 A90       0.110000
     37 H16          3.5590     0.6010    -3.3420 hn         1 A90       0.454800
     38 Cl           6.4780     7.0040    -0.5860 cl         1 A90      -0.106400
@<TRIPOS>BOND
     1     9     8 ar
     2     9     5 ar
     3     8     7 ar
     4    38     5 1
     5    21    20 2
     6     5    10 ar
     7     7    20 1
     8     7    11 ar
     9    19    20 1
    10    19     6 1
    11    20    22 2
    12     4     6 1
    13     4     3 1
    14    10    11 ar
    15     1     3 ar
    16     1    12 ar
    17     3    18 ar
    18    12    16 ar
    19    18    17 ar
    20    16    17 ar
    21    16     2 1
    22     2    14 1
    23    15    14 1
    24    14    13 1
    25     1    23 1
    26     2    24 1
    27     2    25 1
    28     4    26 1
    29     4    27 1
    30     6    28 1
    31     6    29 1
    32     8    30 1
    33     9    31 1
    34    10    32 1
    35    11    33 1
    36    12    34 1
    37    17    35 1
    38    18    36 1
    39    19    37 1
@<TRIPOS>SUBSTRUCTURE
     1 A90         1 TEMP              0 ****  ****    0 ROOT
