@<TRIPOS>MOLECULE
A90
   38    39     1     0     0
SMALL
bcc


@<TRIPOS>ATOM
      1 C4           0.0000     0.0000     0.0000 ca         1 A90      -0.102500
      2 C14         -0.7520     0.0040     3.7000 c3         1 A90      -0.098100
      3 C5           1.3820     0.0000     0.0000 ca         1 A90      -0.144300
      4 C6           2.1350    -0.0010    -1.3060 c3         1 A90       0.034900
      5 C11          5.5750     5.8430    -1.5060 ca         1 A90       0.012400
      6 C7           2.3910     1.4410    -1.7480 c3         1 A90       0.219800
      7 C8           4.1340     4.0000    -2.9800 ca         1 A90      -0.159500
      8 C9           3.4790     4.8540    -2.1120 ca         1 A90       0.018000
      9 C10          4.1990     5.7750    -1.3760 ca         1 A90      -0.134000
     10 C12          6.2290     4.9870    -2.3760 ca         1 A90      -0.134000
     11 C13          5.5080     4.0670    -3.1120 ca         1 A90       0.018000
     12 C3          -0.6910     0.0010     1.1980 ca         1 A90      -0.097500
     13 O2          -1.6640    -1.6600     5.2800 o          1 A90      -0.894300
     14 C15         -1.0040    -1.4170     4.1360 c          1 A90       0.982600
     15 O3          -0.6130    -2.3350     3.4580 o          1 A90      -0.894300
     16 C2           0.0010     0.0020     2.3950 ca         1 A90       0.007700
     17 C1           1.3840     0.0010     2.3940 ca         1 A90      -0.097500
     18 C            2.0740     0.0000     1.1970 ca         1 A90      -0.102500
     19 N            3.1220     1.4410    -3.0160 n7         1 A90      -0.579100
     20 S            3.2160     2.8260    -3.9200 sy         1 A90       1.039200
     21 O            1.8920     3.3330    -4.0140 o          1 A90      -0.593800
     22 O1           4.0100     2.5110    -5.0560 o          1 A90      -0.593800
     23 H1          -0.5420    -0.0010    -0.9380 ha         1 A90       0.088500
     24 H2          -0.1660     0.5150     4.4540 hc         1 A90       0.013200
     25 H3          -1.6990     0.5150     3.5700 hc         1 A90       0.013200
     26 H4           3.0810    -0.5120    -1.1770 hc         1 A90       0.014200
     27 H5           1.5490    -0.5110    -2.0600 hc         1 A90       0.014200
     28 H6           1.4450     1.9530    -1.8760 h1         1 A90       0.017700
     29 H7           2.9780     1.9510    -0.9930 h1         1 A90       0.017700
     30 H8           2.4010     4.8010    -2.0100 ha         1 A90       0.127000
     31 H9           3.6860     6.4440    -0.6950 ha         1 A90       0.118000
     32 H10          7.3060     5.0400    -2.4790 ha         1 A90       0.118000
     33 H11          6.0190     3.3970    -3.7930 ha         1 A90       0.127000
     34 H12         -1.7740     0.0010     1.1990 ha         1 A90       0.104500
     35 H14          1.9260     0.0010     3.3320 ha         1 A90       0.104500
     36 H15          3.1570    -0.0000     1.1970 ha         1 A90       0.088500
     37 H16          3.5590     0.6010    -3.3420 hn         1 A90       0.349800
     38 Cl           6.4780     7.0040    -0.5860 cl         1 A90      -0.026400
@<TRIPOS>BOND
     1     1     3 ar  
     2     1    12 ar  
     3     1    23 1   
     4     2    14 1   
     5     2    16 1   
     6     2    24 1   
     7     2    25 1   
     8     3     4 1   
     9     3    18 ar  
    10     4     6 1   
    11     4    26 1   
    12     4    27 1   
    13     5     9 ar  
    14     5    10 ar  
    15     5    38 1   
    16     6    19 1   
    17     6    28 1   
    18     6    29 1   
    19     7     8 ar  
    20     7    11 ar  
    21     7    20 1   
    22     8     9 ar  
    23     8    30 1   
    24     9    31 1   
    25    10    11 ar  
    26    10    32 1   
    27    11    33 1   
    28    12    16 ar  
    29    12    34 1   
    30    13    14 1   
    31    14    15 1   
    32    16    17 ar  
    33    17    18 ar  
    34    17    35 1   
    35    18    36 1   
    36    19    20 1   
    37    19    37 1   
    38    20    21 2   
    39    20    22 2   
@<TRIPOS>SUBSTRUCTURE
     1 A90         1 TEMP              0 ****  ****    0 ROOT
