@<TRIPOS>MOLECULE
molecule
   39    41     1     0     0
SMALL
bcc


@<TRIPOS>ATOM
      1 C1           0.0000     0.0000     0.0000 cc         1 A91      -0.069900
      2 C2           1.3260     0.0000     0.0000 cd         1 A91      -0.145400
      3 N3           1.7460     0.0000     1.3250 n          1 A91      -0.221400
      4 C4           0.6390     0.0000     2.0960 c          1 A91       0.796600
      5 O5          -0.4290     0.0010     1.2840 os         1 A91      -0.263200
      6 O6           0.6140     0.0000     3.3130 o          1 A91      -0.593500
      7 N7           3.0390    -0.0010     1.7650 nu         1 A91      -0.707200
      8 C8           3.4250     1.3230     2.2700 c3         1 A91       0.099100
      9 C9           4.8540     1.2830     2.7460 ca         1 A91       0.002700
     10 C10          5.9010     1.3700     1.8240 ca         1 A91      -0.023000
     11 C11          7.2240     1.3330     2.2740 ca         1 A91      -0.099000
     12 C12          7.4860     1.2100     3.6220 ca         1 A91      -0.118000
     13 C13          6.4450     1.1240     4.5280 ca         1 A91      -0.122000
     14 C14          5.1320     1.1670     4.0910 ca         1 A91      -0.090000
     15 C15          5.6200     1.4970     0.4250 cg         1 A91      -0.089000
     16 C16          5.3920     1.6200    -0.7200 ch         1 A91      -0.199000
     17 C17          5.3110     1.2110    -2.1860 ca         1 A91       0.630300
     18 C18          5.1520     0.1220    -2.6370 ca         1 A91      -0.336600
     19 C19          5.1060    -0.0230    -4.1640 ca         1 A91       0.386600
     20 N20          5.2470     1.0870    -4.9320 nb         1 A91      -0.665000
     21 C21          5.4060     2.1250    -4.0800 ca         1 A91       0.981900
     22 N22          5.4360     2.2240    -3.0820 nb         1 A91      -0.720000
     23 C23          4.6700    -1.6370    -4.7420 c3         1 A91      -0.090400
     24 N24          5.9250     3.2140    -5.3880 nv         1 A91      -1.150500
     25 H1          -0.5420    -0.5260    -0.7770 h4         1 A91       0.197000
     26 H2           1.8680    -0.5290    -0.7750 h4         1 A91       0.176000
     27 HN7          3.4670    -0.8790     1.5440 hn         1 A91       0.474800
     28 H81          2.6570     2.0440     2.0160 h1         1 A91       0.114700
     29 H82          4.3630     1.6220     1.8200 h1         1 A91       0.114700
     30 H11          8.0400     1.3990     1.5640 ha         1 A91       0.144000
     31 H12          8.5100     1.1810     3.9740 ha         1 A91       0.139000
     32 H13          6.6550     1.0280     5.5870 ha         1 A91       0.139000
     33 H14          4.3250     1.0290     4.8010 ha         1 A91       0.161000
     34 H18          5.3830    -0.7590    -2.0510 ha         1 A91       0.160000
     35 H231         3.6950    -1.9080    -4.3560 hc         1 A91       0.053700
     36 H232         4.6420    -1.6370    -5.8250 hc         1 A91       0.053700
     37 H233         5.4060    -2.3540    -4.4000 hc         1 A91       0.053700
     38 H241         5.2700     3.5060    -6.0850 hn         1 A91       0.413800
     39 H242         6.8640     3.5600    -5.4070 hn         1 A91       0.413800
@<TRIPOS>BOND
     1     1     5 1
     2     1     2 2
     3     1    25 1
     4     2     3 1
     5     2    26 1
     6     3     4 1
     7     3     7 1
     8     4     5 1
     9     4     6 2
    10     7     8 1
    11     7    27 1
    12     8     9 1
    13     8    28 1
    14     8    29 1
    15     9    10 ar
    16     9    14 ar
    17    10    15 1
    18    10    11 ar
    19    11    12 ar
    20    11    30 1
    21    12    13 ar
    22    12    31 1
    23    13    14 ar
    24    13    32 1
    25    14    33 1
    26    15    16 3
    27    16    17 1
    28    17    18 ar
    29    17    22 ar
    30    18    19 ar
    31    18    34 1
    32    19    23 1
    33    19    20 ar
    34    20    21 ar
    35    21    22 ar
    36    21    24 1
    37    23    35 1
    38    23    36 1
    39    23    37 1
    40    24    38 1
    41    24    39 1
@<TRIPOS>SUBSTRUCTURE
     1 A91         1 TEMP              0 ****  ****    0 ROOT
