@<TRIPOS>MOLECULE
A92
   45    48     1     0     0
SMALL
bcc


@<TRIPOS>ATOM
      1 F            0.0000     0.0000     0.0000 f          1 A92      -0.125900
      2 C1           1.9960     0.0020    -6.4510 ca         1 A92      -0.127000
      3 C2           3.6500     0.0000     0.0000 ca         1 A92      -0.022000
      4 C3           0.6290     0.0010    -6.2440 ca         1 A92      -0.047000
      5 C4           3.8960     0.0000     1.3570 ca         1 A92      -0.102000
      6 C5           2.8710     0.0020    -5.3860 ca         1 A92       0.078000
      7 C6           1.5380    -0.0010     1.8010 ca         1 A92      -0.103000
      8 C7           2.3350    -0.0000    -0.4670 ca         1 A92      -0.164900
      9 C8           0.1150     0.0010    -4.9470 ca         1 A92      -0.230600
     10 C9           2.8440     0.0000     2.2550 ca         1 A92      -0.036300
     11 C10          0.9930     0.0010    -3.8550 ca         1 A92      -0.160200
     12 C11          2.3810    -0.0000    -4.0760 ca         1 A92       0.053400
     13 C12          1.2760    -0.0000     0.4440 ca         1 A92       0.090900
     14 C13          2.0640     0.0010    -1.9210 cc         1 A92       0.294400
     15 C15          3.2350    -1.4130     5.7930 c3         1 A92      -0.024400
     16 C16          2.2630    -0.4420     6.4670 c3         1 A92      -0.026400
     17 C17          2.9700    -1.4210     4.2850 c3         1 A92      -0.020400
     18 C18          2.4350     0.9510     5.8560 c3         1 A92       0.149800
     19 C19          3.1220    -0.0010     3.7370 c3         1 A92       0.167800
     20 N20          0.8190     0.0010    -2.4910 na         1 A92       0.243700
     21 N21          2.9790     0.0000    -2.8590 nd         1 A92      -0.489100
     22 N22          2.1710     0.8910     4.4140 n7         1 A92      -0.582200
     23 N23         -2.1840     0.0020    -5.7800 nz         1 A92       0.202600
     24 O24         -1.7880     0.0020    -3.5950 o          1 A92      -0.473100
     25 H1           2.3840     0.0010    -7.4630 ha         1 A92       0.130000
     26 H2           4.4760    -0.0000    -0.7010 ha         1 A92       0.134000
     27 H3          -0.0450     0.0010    -7.0920 ha         1 A92       0.079000
     28 H4           4.9170     0.0000     1.7200 ha         1 A92       0.123000
     29 H5           3.9400     0.0020    -5.5630 ha         1 A92       0.129000
     30 H6           0.7190    -0.0010     2.5100 ha         1 A92       0.149000
     31 H15          3.0840    -2.4090     6.1910 hc         1 A92       0.018700
     32 H15A         4.2530    -1.0920     5.9790 hc         1 A92       0.018700
     33 H16          2.4750    -0.3990     7.5290 hc         1 A92       0.024200
     34 H16A         1.2460    -0.7810     6.3100 hc         1 A92       0.024200
     35 H17          1.9630    -1.7730     4.0980 hc         1 A92       0.022700
     36 H17A         3.6830    -2.0740     3.7970 hc         1 A92       0.022700
     37 H18          1.7370     1.6360     6.3210 h1         1 A92       0.010700
     38 H18A         3.4490     1.2930     6.0220 h1         1 A92       0.010700
     39 H19          4.1320     0.3470     3.9190 h1         1 A92       0.018700
     40 HN20         0.1750    -0.2620    -1.7710 hn         1 A92       0.192700
     41 HN22         2.2390     1.8100     4.0240 hn         1 A92       0.255800
     42 HN23        -2.0230     0.8200    -6.3350 hn         1 A92       0.245467
     43 HN2A        -3.1310     0.0020    -5.4540 hn         1 A92       0.245467
     44 H233        -2.0230    -0.8150    -6.3350 hn         1 A92       0.245467
     45 C14         -1.3440     0.0010    -4.7270 c          1 A92       0.357700
@<TRIPOS>BOND
     1     1    13 1   
     2     2     4 ar  
     3     2     6 ar  
     4     2    25 1   
     5     3     5 ar  
     6     3     8 ar  
     7     3    26 1   
     8     4     9 ar  
     9     4    27 1   
    10     5    10 ar  
    11     5    28 1   
    12     6    12 ar  
    13     6    29 1   
    14     7    10 ar  
    15     7    13 ar  
    16     7    30 1   
    17     8    13 ar  
    18     8    14 1   
    19     9    11 ar  
    20     9    45 1   
    21    10    19 1   
    22    11    12 ar  
    23    11    20 1   
    24    12    21 1   
    25    14    20 1   
    26    14    21 2   
    27    15    16 1   
    28    15    17 1   
    29    15    31 1   
    30    15    32 1   
    31    16    18 1   
    32    16    33 1   
    33    16    34 1   
    34    17    19 1   
    35    17    35 1   
    36    17    36 1   
    37    18    22 1   
    38    18    37 1   
    39    18    38 1   
    40    19    22 1   
    41    19    39 1   
    42    20    40 1   
    43    22    41 1   
    44    23    42 1   
    45    23    43 1   
    46    23    44 1   
    47    23    45 1   
    48    24    45 2   
@<TRIPOS>SUBSTRUCTURE
     1 A92         1 TEMP              0 ****  ****    0 ROOT
