@<TRIPOS>MOLECULE
molecule
   45    48     1     0     0
SMALL
bcc


@<TRIPOS>ATOM
      1 F            0.0000     0.0000     0.0000 f          1 A92      -0.143900
      2 C1           1.9960     0.0020    -6.4510 ca         1 A92      -0.147000
      3 C2           3.6500     0.0000     0.0000 ca         1 A92      -0.047000
      4 C3           0.6290     0.0010    -6.2440 ca         1 A92      -0.088000
      5 C4           3.8960     0.0000     1.3570 ca         1 A92      -0.137000
      6 C5           2.8710     0.0020    -5.3860 ca         1 A92       0.018000
      7 C6           1.5380    -0.0010     1.8010 ca         1 A92      -0.133000
      8 C7           2.3350    -0.0000    -0.4670 ca         1 A92      -0.172900
      9 C8           0.1150     0.0010    -4.9470 ca         1 A92      -0.215600
     10 C9           2.8440     0.0000     2.2550 ca         1 A92      -0.027300
     11 C10          0.9930     0.0010    -3.8550 ca         1 A92       0.008800
     12 C11          2.3810    -0.0000    -4.0760 ca         1 A92       0.098400
     13 C12          1.2760    -0.0000     0.4440 ca         1 A92       0.126900
     14 C13          2.0640     0.0010    -1.9210 cc         1 A92       0.487400
     15 C15          3.2350    -1.4130     5.7930 c3         1 A92      -0.081400
     16 C16          2.2630    -0.4420     6.4670 c3         1 A92      -0.080400
     17 C17          2.9700    -1.4210     4.2850 c3         1 A92      -0.070400
     18 C18          2.4350     0.9510     5.8560 c3         1 A92       0.159800
     19 C19          3.1220    -0.0010     3.7370 c3         1 A92       0.205800
     20 N20          0.8190     0.0010    -2.4910 na         1 A92      -0.257300
     21 N21          2.9790     0.0000    -2.8590 nd         1 A92      -0.584100
     22 N22          2.1710     0.8910     4.4140 n7         1 A92      -0.821200
     23 N23         -2.1840     0.0020    -5.7800 nz         1 A92      -0.677400
     24 O24         -1.7880     0.0020    -3.5950 o          1 A92      -0.444100
     25 H1           2.3840     0.0010    -7.4630 ha         1 A92       0.163000
     26 H2           4.4760    -0.0000    -0.7010 ha         1 A92       0.169000
     27 H3          -0.0450     0.0010    -7.0920 ha         1 A92       0.110000
     28 H4           4.9170     0.0000     1.7200 ha         1 A92       0.154000
     29 H5           3.9400     0.0020    -5.5630 ha         1 A92       0.175000
     30 H6           0.7190    -0.0010     2.5100 ha         1 A92       0.180000
     31 H15          3.0840    -2.4090     6.1910 hc         1 A92       0.048200
     32 H15A         4.2530    -1.0920     5.9790 hc         1 A92       0.048200
     33 H16          2.4750    -0.3990     7.5290 hc         1 A92       0.054700
     34 H16A         1.2460    -0.7810     6.3100 hc         1 A92       0.054700
     35 H17          1.9630    -1.7730     4.0980 hc         1 A92       0.052200
     36 H17A         3.6830    -2.0740     3.7970 hc         1 A92       0.052200
     37 H18          1.7370     1.6360     6.3210 h1         1 A92       0.039200
     38 H18A         3.4490     1.2930     6.0220 h1         1 A92       0.039200
     39 H19          4.1320     0.3470     3.9190 h1         1 A92       0.038700
     40 HN20         0.1750    -0.2620    -1.7710 hn         1 A92       0.353700
     41 HN22         2.2390     1.8100     4.0240 hn         1 A92       0.357800
     42 HN23        -2.0230     0.8200    -6.3350 hn         1 A92       0.475800
     43 HN2A        -3.1310     0.0020    -5.4540 hn         1 A92       0.475800
     44 H233        -2.0230    -0.8150    -6.3350 hn         1 A92       0.475800
     45 C14         -1.3440     0.0010    -4.7270 c          1 A92       0.506700
@<TRIPOS>BOND
     1     1    13 1
     2     2     4 ar
     3     2     6 ar
     4     3     5 ar
     5     3     8 ar
     6     4     9 ar
     7     5    10 ar
     8     6    12 ar
     9     7    10 ar
    10     7    13 ar
    11     8    13 ar
    12     8    14 1
    13     9    11 ar
    14     9    45 1
    15    10    19 1
    16    11    12 ar
    17    11    20 1
    18    12    21 1
    19    14    20 1
    20    14    21 2
    21    45    23 1
    22    45    24 2
    23    15    16 1
    24    15    17 1
    25    16    18 1
    26    17    19 1
    27    18    22 1
    28    19    22 1
    29     2    25 1
    30     3    26 1
    31     4    27 1
    32     5    28 1
    33     6    29 1
    34     7    30 1
    35    15    31 1
    36    15    32 1
    37    16    33 1
    38    16    34 1
    39    17    35 1
    40    17    36 1
    41    18    37 1
    42    18    38 1
    43    19    39 1
    44    20    40 1
    45    22    41 1
    46    23    42 1
    47    23    43 1
    48    44    23 1
@<TRIPOS>SUBSTRUCTURE
     1 A92         1 TEMP              0 ****  ****    0 ROOT
