@<TRIPOS>MOLECULE
A93
   46    47     1     0     0
SMALL
bcc


@<TRIPOS>ATOM
      1 CAE        -0.2980    0.4830    0.7530 c2        1 A93      0.349000
      2 OAE         0.4590    1.4000    1.0710 o         1 A93     -0.331000
      3 CAQ        -1.3410   -0.1620    1.5660 c2        1 A93     -0.163000
      4 CAI        -2.0990   -1.3050    0.8670 c3        1 A93      0.025000
      5 CAH        -3.0150   -1.7160    1.9060 c1        1 A93     -0.166000
      6 CAJ        -3.1980   -1.3250    3.0450 c1        1 A93     -0.203000
      7 CAR        -2.5970   -0.2560    3.8180 c3        1 A93      0.076000
      8 CAM        -1.5490    0.2810    2.8310 c2        1 A93     -0.073000
      9 CAF        -1.9440   -0.7130    5.1150 c3        1 A93     -0.189000
     10 CAG        -1.2720    0.3800    5.7880 c1        1 A93     -0.036000
     11 CAS        -0.3640    0.1950    6.8490 c2        1 A93     -0.152000
     12 CAL        -0.3850    1.1500    8.0210 c3        1 A93     -0.026000
     13 CAO         0.8340    0.7910    8.8290 c2        1 A93     -0.463000
     14 CAB         1.2070    1.3460    9.9630 c1        1 A93      0.202000
     15 CAP         1.5850   -0.3400    8.1150 c3        1 A93      0.214000
     16 OAD         1.6320   -1.5220    8.8990 oh        1 A93     -0.302000
     17 CAN         2.9420    0.1260    7.6750 c2        1 A93     -0.207000
     18 CAA         4.0480   -0.6060    7.7730 c2        1 A93     -0.192000
     19 CAK         0.6990   -0.6450    6.9150 c2        1 A93     -0.096000
     20 O3         -0.2080   -0.0520   -0.5170 os        1 A93     -0.229000
     21 HAI        -1.3830   -2.1090    0.5600 hc        1 A93      0.125500
     22 HAH        -2.6120   -0.9180   -0.0520 hc        1 A93      0.125500
     23 HAJ        -3.3300    0.5710    4.0400 hc        1 A93      0.141000
     24 HAM        -0.9490    1.1090    3.2510 ha        1 A93      0.178000
     25 HAF        -2.7530   -1.1020    5.8040 hc        1 A93      0.132500
     26 HAG        -1.2550   -1.5840    4.9170 hc        1 A93      0.132500
     27 HAL        -0.3380    2.2110    7.6650 hc        1 A93      0.112000
     28 HAB        -0.5530    2.8190   10.0640 ha        1 A93      0.011000
     29 HABA       -0.2240    2.9640   10.6420 ha        1 A93      0.011000
     30 HABB       -1.3180    1.0140    8.6250 hc        1 A93      0.112000
     31 HOAD        2.2200   -1.3430    9.6440 ho        1 A93      0.211000
     32 HAA         5.0240   -0.2330    7.4310 ha        1 A93      0.122500
     33 HAAA        4.0560   -1.6220    8.1920 ha        1 A93      0.122500
     34 HAAB        2.9480    1.1390    7.2420 ha        1 A93      0.143000
     35 HAK         0.9850   -1.4340    6.2180 ha        1 A93      0.159000
     36 C18         0.7480    0.4440   -1.4040 ca        1 A93      0.046000
     37 C19         1.4780   -0.5210   -2.1130 ca        1 A93     -0.108000
     38 C20         2.3620   -0.1100   -3.1030 ca        1 A93     -0.153000
     39 C21         2.5210    1.2630   -3.3720 ca        1 A93      0.083000
     40 C22         1.7900    2.2230   -2.6460 ca        1 A93     -0.153000
     41 C23         0.9000    1.8100   -1.6600 ca        1 A93     -0.108000
     42 H16         1.3400   -1.5890   -1.8900 ha        1 A93      0.156500
     43 H17         2.9420   -0.8480   -3.6780 ha        1 A93      0.153500
     44 F1          3.3850    1.6630   -4.3350 f         1 A93     -0.104000
     45 H18         1.9290    3.2920   -2.8620 ha        1 A93      0.153500
     46 H19         0.3360    2.5500   -1.0710 ha        1 A93      0.156500
@<TRIPOS>BOND
     1    1    2 1   
     2    1    3 1   
     3    1   20 1   
     4    3    4 1   
     5    3    8 1   
     6    4    5 1   
     7    4   21 1   
     8    4   22 1   
     9    5    6 1   
    10    6    7 1   
    11    7    8 1   
    12    7    9 1   
    13    7   23 1   
    14    8   24 1   
    15    9   10 1   
    16    9   25 1   
    17    9   26 1   
    18   10   11 1   
    19   11   12 1   
    20   11   19 1   
    21   12   13 1   
    22   12   27 1   
    23   12   30 1   
    24   13   14 1   
    25   13   15 1   
    26   15   16 1   
    27   15   17 1   
    28   15   19 1   
    29   16   31 1   
    30   17   18 1   
    31   17   34 1   
    32   18   32 1   
    33   18   33 1   
    34   19   35 1   
    35   20   36 1   
    36   28   29 1   
    37   36   37 1   
    38   36   41 1   
    39   37   38 1   
    40   37   42 1   
    41   38   39 1   
    42   38   43 1   
    43   39   40 1   
    44   39   44 1   
    45   40   41 1   
    46   40   45 1   
    47   41   46 1   
@<TRIPOS>SUBSTRUCTURE
     1 A93         1 TEMP              0 ****  ****    0 ROOT
