@<TRIPOS>MOLECULE
molecule
   46    48     1     0     0
SMALL
bcc


@<TRIPOS>ATOM
      1 CAE          0.0000     0.0000     0.0000 c          1 A93       0.646700
      2 OAE          1.2140     0.0000     0.0000 o          1 A93      -0.528000
      3 CAQ         -0.7390     0.0000     1.2800 ca         1 A93      -0.133600
      4 CAI         -2.1360    -0.0010     1.2810 ca         1 A93      -0.080000
      5 CAH         -2.8290    -0.0010     2.4760 ca         1 A93      -0.142000
      6 CAJ         -2.1470    -0.0010     3.6770 ca         1 A93      -0.092000
      7 CAR         -0.7490    -0.0020     3.6900 ca         1 A93      -0.067800
      8 CAM         -0.0440    -0.0070     2.4870 ca         1 A93      -0.054000
      9 CAF         -0.0230    -0.0020     4.9730 ce         1 A93      -0.115200
     10 CAG         -0.7040    -0.0020     6.1310 cf         1 A93      -0.100200
     11 CAS          0.0220    -0.0020     7.4120 ca         1 A93      -0.063800
     12 CAL         -0.6850    -0.0010     8.6180 ca         1 A93      -0.111000
     13 CAO         -0.0010    -0.0010     9.8150 ca         1 A93      -0.099800
     14 CAB         -0.7620    -0.0020    11.1160 c3         1 A93      -0.043300
     15 CAP          1.3880    -0.0020     9.8240 ca         1 A93       0.104100
     16 OAD          2.0570    -0.0030    11.0060 oh         1 A93      -0.519100
     17 CAN          2.0940    -0.0030     8.6280 ca         1 A93      -0.099800
     18 CAA          3.6010    -0.0030     8.6450 c3         1 A93      -0.043300
     19 CAK          1.4200    -0.0070     7.4260 ca         1 A93      -0.111000
     20 O3          -0.6740     0.0070    -1.1670 os         1 A93      -0.340200
     21 HAI         -2.6780    -0.0010     0.3430 ha         1 A93       0.149000
     22 HAH         -3.9130    -0.0010     2.4710 ha         1 A93       0.138000
     23 HAJ         -2.6970     0.0010     4.6110 ha         1 A93       0.138000
     24 HAM          1.0390    -0.0080     2.4920 ha         1 A93       0.158000
     25 HAF          1.0610    -0.0010     4.9820 ha         1 A93       0.140000
     26 HAG         -1.7870    -0.0020     6.1220 ha         1 A93       0.132000
     27 HAL         -1.7660     0.0680     8.6120 ha         1 A93       0.136000
     28 HAB         -0.6260     0.9500    11.6140 hc         1 A93       0.046367
     29 HABA        -0.3920    -0.7980    11.7500 hc         1 A93       0.046367
     30 HABB        -1.8160    -0.1580    10.9170 hc         1 A93       0.046367
     31 HOAD         2.2120     0.8860    11.2800 ho         1 A93       0.418000
     32 HAA          3.9730    -0.1530     7.6380 hc         1 A93       0.046367
     33 HAAA         3.9590     0.9460     9.0240 hc         1 A93       0.046367
     34 HAAB         3.9550    -0.8040     9.2830 hc         1 A93       0.046367
     35 HAK          1.9720    -0.0080     6.4950 ha         1 A93       0.136000
     36 C18          0.0630     0.1170    -2.3040 ca         1 A93       0.090100
     37 C19          0.7500    -0.9830    -2.7940 ca         1 A93      -0.100500
     38 C20          1.4940    -0.8710    -3.9540 ca         1 A93      -0.157500
     39 C21          1.5530     0.3370    -4.6250 ca         1 A93       0.135900
     40 C22          0.8680     1.4370    -4.1360 ca         1 A93      -0.157500
     41 C23          0.1220     1.3280    -2.9780 ca         1 A93      -0.100500
     42 H16          0.7040    -1.9290    -2.2690 ha         1 A93       0.148000
     43 H17          2.0310    -1.7310    -4.3380 ha         1 A93       0.150500
     44 F1           2.2810     0.4450    -5.7580 f          1 A93      -0.138900
     45 H18          0.9150     2.3820    -4.6620 ha         1 A93       0.150500
     46 H19         -0.4140     2.1880    -2.5960 ha         1 A93       0.148000
@<TRIPOS>BOND
     1     1     2 2
     2     1     3 1
     3     1    20 1
     4     3     4 ar
     5     3     8 ar
     6     4     5 ar
     7     4    21 1
     8     5     6 ar
     9     5    22 1
    10     6     7 ar
    11     6    23 1
    12     7     8 ar
    13     7     9 1
    14     8    24 1
    15     9    10 2
    16     9    25 1
    17    10    11 1
    18    10    26 1
    19    11    12 ar
    20    11    19 ar
    21    12    13 ar
    22    12    27 1
    23    13    14 1
    24    13    15 ar
    25    14    28 1
    26    14    29 1
    27    14    30 1
    28    15    16 1
    29    15    17 ar
    30    16    31 1
    31    17    18 1
    32    17    19 ar
    33    18    32 1
    34    18    33 1
    35    18    34 1
    36    19    35 1
    37    36    37 ar
    38    37    38 ar
    39    38    39 ar
    40    39    40 ar
    41    40    41 ar
    42    36    41 ar
    43    36    20 1
    44    37    42 1
    45    38    43 1
    46    39    44 1
    47    40    45 1
    48    41    46 1
@<TRIPOS>SUBSTRUCTURE
     1 A93         1 TEMP              0 ****  ****    0 ROOT
