@<TRIPOS>MOLECULE
A94
   46    48     1     0     0
SMALL
bcc


@<TRIPOS>ATOM
      1 C1           0.0000     0.0000     0.0000 ca         1 A94       0.416600
      2 N2           1.3230     0.0000     0.0000 nb         1 A94      -0.618000
      3 C3           2.0000     0.0000     1.1380 ca         1 A94       0.714900
      4 N4           1.3850    -0.0010     2.3120 nb         1 A94      -0.608000
      5 C5           0.0640    -0.0010     2.3820 ca         1 A94       0.387600
      6 C6          -0.6760     0.0000     1.2100 ca         1 A94      -0.337600
      7 C7          -0.7630     0.0070    -1.3000 c3         1 A94      -0.042400
      8 N8           3.3830    -0.0000     1.1020 nv         1 A94      -0.637500
      9 C9          -0.6290    -0.0010     3.7210 c3         1 A94       0.182500
     10 N10         -0.7460    -1.3770     4.2100 n7         1 A94      -0.575100
     11 S11         -1.1190    -1.6620     5.7970 sy         1 A94       1.042200
     12 O12         -1.1920    -3.0740     5.9450 o          1 A94      -0.581300
     13 O13         -0.2490    -0.8450     6.5680 o          1 A94      -0.581300
     14 C14         -5.5680     5.9430     8.7360 c3         1 A94       0.221400
     15 C15         -4.7870     4.8570     7.9600 c3         1 A94       0.008800
     16 C16         -5.8630     3.8140     7.7010 ce         1 A94      -0.408400
     17 C17         -7.0980     4.4540     7.9590 c          1 A94       0.831800
     18 O18         -6.9240     5.7460     8.2980 os         1 A94      -0.388900
     19 O19         -8.1820     3.9070     7.8830 o          1 A94      -0.642500
     20 C20         -5.6770     2.5370     7.3060 c2         1 A94       0.045000
     21 C22         -4.2200     0.7410     6.6880 ca         1 A94      -0.030400
     22 C23         -5.3130    -0.0940     6.4930 ca         1 A94      -0.106000
     23 C24         -5.1200    -1.4000     6.0890 ca         1 A94      -0.087000
     24 C25         -3.8390    -1.8770     5.8770 ca         1 A94      -0.025000
     25 C26         -2.7490    -1.0490     6.0690 ca         1 A94      -0.122500
     26 C27         -2.9350     0.2600     6.4680 ca         1 A94      -0.053000
     27 H6          -1.7590    -0.0000     1.2390 ha         1 A94       0.127000
     28 H71         -0.0650    -0.0080    -2.1280 hc         1 A94       0.018700
     29 H72         -1.3720     0.9010    -1.3560 hc         1 A94       0.018700
     30 H73         -1.4000    -0.8670    -1.3490 hc         1 A94       0.018700
     31 HN81         3.8840     0.8670     1.0890 hn         1 A94       0.282300
     32 HN82         3.8840    -0.8670     1.0870 hn         1 A94       0.282300
     33 H91         -1.6170     0.4310     3.6160 h1         1 A94       0.023700
     34 H92         -0.0510     0.5850     4.4260 h1         1 A94       0.023700
     35 HN10        -0.5840    -2.1440     3.5880 hn         1 A94       0.353800
     36 H142        -5.2200     6.9320     8.4640 h1         1 A94       0.017200
     37 H151        -3.9920     4.4460     8.5690 hc         1 A94       0.022200
     38 H152        -4.4040     5.2530     7.0270 hc         1 A94       0.022200
     39 H20         -6.5310     1.8870     7.1550 h4         1 A94       0.150000
     40 H23         -6.3170     0.2790     6.6590 ha         1 A94       0.123000
     41 H24         -5.9720    -2.0510     5.9370 ha         1 A94       0.113000
     42 H25         -3.6900    -2.9020     5.5590 ha         1 A94       0.127000
     43 H27         -2.0790     0.8900     6.6750 ha         1 A94       0.130000
     44 N21         -4.4120     2.0640     7.0970 nu         1 A94      -0.163400
     45 H141        -5.4860     5.7810     9.8040 h1         1 A94       0.017200
     46 HN21        -3.6260     2.6730     7.2060 hn         1 A94       0.289800
@<TRIPOS>BOND
     1     1     2 ar  
     2     1     6 ar  
     3     1     7 1   
     4     2     3 ar  
     5     3     4 ar  
     6     3     8 1   
     7     4     5 ar  
     8     5     6 ar  
     9     5     9 1   
    10     6    27 1   
    11     7    28 1   
    12     7    29 1   
    13     7    30 1   
    14     8    31 1   
    15     8    32 1   
    16     9    10 1   
    17     9    33 1   
    18     9    34 1   
    19    10    11 1   
    20    10    35 1   
    21    11    12 2   
    22    11    13 2   
    23    11    25 1   
    24    14    15 1   
    25    14    18 1   
    26    14    36 1   
    27    14    45 1   
    28    15    16 1   
    29    15    37 1   
    30    15    38 1   
    31    16    17 1   
    32    16    20 2   
    33    17    18 1   
    34    17    19 2   
    35    20    39 1   
    36    20    44 1   
    37    21    22 ar  
    38    21    26 ar  
    39    21    44 1   
    40    22    23 ar  
    41    22    40 1   
    42    23    24 ar  
    43    23    41 1   
    44    24    25 ar  
    45    24    42 1   
    46    25    26 ar  
    47    26    43 1   
    48    44    46 1   
@<TRIPOS>SUBSTRUCTURE
     1 A94         1 TEMP              0 ****  ****    0 ROOT
