@<TRIPOS>MOLECULE
A96
   41    44     1     0     0
SMALL
bcc


@<TRIPOS>ATOM
      1 N1          0.4420   -1.7620    1.1370 nb        1 A96     -0.669500
      2 C2          1.7440   -1.4520    1.2410 ca        1 A96      0.392200
      3 C3          2.1950   -0.1490    1.6230 ca        1 A96     -0.166000
      4 C4          1.1700    0.8070    1.8950 ca        1 A96      0.392200
      5 N5         -0.1350    0.5020    1.7920 nb        1 A96     -0.669500
      6 C6         -0.4420   -0.7670    1.4180 ca        1 A96      0.598900
      7 N10         3.5630    0.1230    1.6780 n         1 A96     -0.446100
      8 C11         4.1480    1.2480    2.2500 c         1 A96      0.692700
      9 C12         5.6420    1.2570    2.2310 ca        1 A96     -0.141600
     10 O13         3.4900    2.1800    2.7400 o         1 A96     -0.556100
     11 C14         6.3750    0.1570    2.6700 ca        1 A96      0.090100
     12 C15         7.7960    0.1400    2.7460 ca        1 A96     -0.244900
     13 C16         8.5190    1.2560    2.3500 ca        1 A96     -0.027000
     14 C17         7.8090    2.3600    1.8830 ca        1 A96     -0.162000
     15 C18         6.4010    2.3650    1.8180 ca        1 A96      0.102400
     16 O21         5.8940   -1.0930    3.1000 os        1 A96     -0.015600
     17 N22         6.9160   -1.8760    3.4500 nc        1 A96     -0.441200
     18 C23         8.0900   -1.2190    3.2640 cd        1 A96      0.572800
     19 CL24        5.6520    3.7500    1.1970 cl        1 A96     -0.031400
     20 N25         9.3880   -1.6910    3.4280 nh        1 A96     -0.649600
     21 C26         9.6550   -2.9120    4.0930 ca        1 A96      0.117600
     22 C27         8.9990   -4.1070    3.7280 ca        1 A96     -0.094000
     23 C28         9.3400   -5.3070    4.3460 ca        1 A96     -0.114000
     24 C29        10.3370   -5.3520    5.3200 ca        1 A96     -0.092000
     25 C30        10.9940   -4.1740    5.6750 ca        1 A96     -0.146300
     26 C31        10.6620   -2.9580    5.0810 ca        1 A96     -0.124000
     27 C36        12.1030   -4.2120    6.7210 c3        1 A96      0.687200
     28 F37        11.9750   -5.2120    7.6540 f         1 A96     -0.234967
     29 F38        13.3600   -4.4000    6.1970 f         1 A96     -0.234967
     30 F39        12.2220   -3.0650    7.4680 f         1 A96     -0.234967
     31 H2          2.4550   -2.2660    1.0140 h4        1 A96      0.047100
     32 H4          1.4090    1.8420    2.2080 h4        1 A96      0.047100
     33 H6         -1.5190   -1.0180    1.3330 h5        1 A96      0.057100
     34 HN10        4.1650   -0.6360    1.4370 hn        1 A96      0.330500
     35 H16         9.6180    1.2730    2.3930 ha        1 A96      0.152000
     36 H17         8.3610    3.2560    1.5540 ha        1 A96      0.163000
     37 HN25       10.0410   -0.9590    3.6320 hn        1 A96      0.430800
     38 H27         8.2160   -4.1060    2.9520 ha        1 A96      0.162000
     39 H28         8.8160   -6.2320    4.0590 ha        1 A96      0.150000
     40 H29        10.6020   -6.3030    5.8080 ha        1 A96      0.157000
     41 H31        11.1940   -2.0450    5.3950 ha        1 A96      0.150000
@<TRIPOS>BOND
     1    1    2 ar
     2    1    6 ar
     3    2    3 ar
     4    2   31 1
     5    3    4 ar
     6    3    7 1
     7    4    5 ar
     8    4   32 1
     9    5    6 ar
    10    6   33 1
    11    7    8 1
    12    7   34 1
    13    8    9 1
    14    8   10 2
    15    9   11 ar
    16    9   15 ar
    17   11   12 ar
    18   11   16 1
    19   12   13 ar
    20   12   18 1
    21   13   14 ar
    22   13   35 1
    23   14   15 ar
    24   14   36 1
    25   15   19 1
    26   16   17 1
    27   17   18 2
    28   18   20 1
    29   20   21 1
    30   20   37 1
    31   21   22 ar
    32   21   26 ar
    33   22   23 ar
    34   22   38 1
    35   23   24 ar
    36   23   39 1
    37   24   25 ar
    38   24   40 1
    39   25   26 ar
    40   25   27 1
    41   26   41 1
    42   27   28 1
    43   27   29 1
    44   27   30 1
@<TRIPOS>SUBSTRUCTURE
     1 A96         1 TEMP              0 ****  ****    0 ROOT
