@<TRIPOS>MOLECULE
molecule
   79    83     1     0     0
SMALL
bcc


@<TRIPOS>ATOM
      1 C18          0.0000     0.0000     0.0000 cp         1 A97      -0.016000
      2 C29         -0.2920    -0.0780    -7.3450 c3         1 A97       0.158300
      3 C19         -0.7360     0.0000    -1.2870 cp         1 A97       0.023000
      4 C25          0.8040     1.1510    -5.0020 c3         1 A97       0.128800
      5 C16          2.0950     0.0000     1.1990 ca         1 A97      -0.069600
      6 C28         -0.1170     2.3310    -7.5100 c3         1 A97       0.141100
      7 C14          3.5710    -0.0010     1.1970 c          1 A97       0.674700
      8 C17          1.3960     0.0000     0.0000 ca         1 A97      -0.133000
      9 C12          5.7080    -0.0010     0.0280 c3         1 A97       0.180200
     10 C21         -2.7840     0.0000    -2.5310 ca         1 A97       0.449200
     11 C20         -2.1360     0.0000    -1.3150 ca         1 A97      -0.277300
     12 C26          1.5760     1.0720    -6.3220 c3         1 A97       0.158300
     13 C23         -0.7810     0.0060    -3.6850 ca         1 A97       0.618200
     14 C01          7.6030     4.1910     0.0930 c3         1 A97      -0.093100
     15 C02          7.7430     2.8610    -0.6510 c3         1 A97      -0.078400
     16 C04          6.5360     1.1730    -2.0080 cc         1 A97       0.033800
     17 C05          7.0060     1.1460    -3.3280 cc         1 A97      -0.251000
     18 C06          7.1260    -0.0360    -3.9790 cd         1 A97       0.062400
     19 C07          7.6330    -0.0570    -5.3980 c3         1 A97      -0.065900
     20 C09          6.3460    -1.2080    -2.0970 c          1 A97       0.690700
     21 C11          6.2100     0.0000    -1.3920 cd         1 A97      -0.266400
     22 C30         -1.0640     0.0010    -6.0260 c3         1 A97       0.128800
     23 C31         -0.0510     0.0060    -2.5030 ca         1 A97      -0.260300
     24 C32         -0.7050     0.0050     1.1970 ca         1 A97      -0.119000
     25 C33         -0.0230     0.0050     2.4090 ca         1 A97      -0.031200
     26 C34          1.3850     0.0000     2.4210 ca         1 A97      -0.197900
     27 C35          1.7840     0.0000     3.7750 cc         1 A97       0.393800
     28 C39         -2.0660    -1.2410     5.0370 c3         1 A97      -0.106600
     29 C40         -2.0570     1.2580     5.0500 c3         1 A97      -0.106600
     30 N08          6.7950    -1.2010    -3.3670 ns         1 A97      -0.407100
     31 N13          4.2430    -0.0010     0.0300 ns         1 A97      -0.572900
     32 N22         -2.1050     0.0000    -3.6630 nb         1 A97      -0.742000
     33 N24         -0.1130     0.0070    -4.9040 nh         1 A97      -0.694300
     34 N27          0.6250     1.0660    -7.4420 n3         1 A97      -0.723600
     35 N36          0.7190     0.0010     4.5260 nd         1 A97      -0.502100
     36 N37         -0.4270     0.0090     3.7210 na         1 A97       0.061900
     37 O15          4.1780    -0.0010     2.2500 o          1 A97      -0.614100
     38 H1           0.2770    -1.0000    -7.3740 h1         1 A97       0.063200
     39 H2          -0.9900    -0.0520    -8.1730 h1         1 A97       0.063200
     40 H3           1.5030     1.1250    -4.1750 h1         1 A97       0.053200
     41 H4           0.2350     2.0730    -4.9720 h1         1 A97       0.053200
     42 H5           0.5790     3.1520    -7.6290 h1         1 A97       0.034700
     43 H6          -0.7950     2.3070    -8.3540 h1         1 A97       0.034700
     44 H7          -0.6830     2.4670    -6.5960 h1         1 A97       0.034700
     45 H8           1.9360     0.0010    -0.9390 ha         1 A97       0.133000
     46 H9           6.0700     0.8830     0.5400 h1         1 A97       0.068700
     47 H10          6.0690    -0.8860     0.5380 h1         1 A97       0.068700
     48 H11         -3.8670    -0.0020    -2.5590 h4         1 A97       0.023100
     49 H12         -2.7030     0.0000    -0.3920 ha         1 A97       0.139000
     50 H13          2.1630     0.1620    -6.3430 h1         1 A97       0.063200
     51 H14          2.2300     1.9320    -6.4100 h1         1 A97       0.063200
     52 H15          6.9140     4.0710     0.9210 hc         1 A97       0.036700
     53 H16          7.2240     4.9460    -0.5850 hc         1 A97       0.036700
     54 H17          8.5710     4.4970     0.4700 hc         1 A97       0.036700
     55 H18          8.4870     2.9610    -1.4320 hc         1 A97       0.047200
     56 H19          8.0500     2.0890     0.0430 hc         1 A97       0.047200
     57 H20          5.6540     2.3820    -0.4930 hc         1 A97       0.060700
     58 H21          6.0910     3.2550    -1.9690 hc         1 A97       0.060700
     59 H22          7.3030     2.0660    -3.8160 ha         1 A97       0.150000
     60 H23          7.1690    -0.8750    -5.9350 hc         1 A97       0.060033
     61 H24          7.3860     0.8800    -5.8830 hc         1 A97       0.060033
     62 H25          8.7080    -0.1890    -5.3960 hc         1 A97       0.060033
     63 H27         -1.6500     0.9110    -6.0060 h1         1 A97       0.053200
     64 H28         -1.7170    -0.8590    -5.9390 h1         1 A97       0.053200
     65 H29          1.0320     0.0110    -2.5240 ha         1 A97       0.145000
     66 H30         -1.7890     0.0080     1.1860 ha         1 A97       0.135000
     67 H31          2.8070    -0.0050     4.1310 h4         1 A97       0.089800
     68 H32         -2.4790     0.0140     3.3420 h1         1 A97       0.061700
     69 H33         -1.4600    -1.2020     5.9340 hc         1 A97       0.049367
     70 H34         -3.1130    -1.2870     5.3100 hc         1 A97       0.049367
     71 H35         -1.8040    -2.1210     4.4620 hc         1 A97       0.049367
     72 H36         -1.7860     2.1420     4.4850 hc         1 A97       0.049367
     73 H37         -3.1050     1.3100     5.3210 hc         1 A97       0.049367
     74 H38         -1.4540     1.2050     5.9480 hc         1 A97       0.049367
     75 H39          3.7420    -0.0360    -0.8360 hn         1 A97       0.316500
     76 H26          6.8900    -2.0650    -3.8630 hn         1 A97       0.338500
     77 C38         -1.8130     0.0120     4.1960 c3         1 A97       0.090000
     78 O10          6.0580    -2.2650    -1.5580 o          1 A97      -0.648500
     79 C03          6.3980     2.4820    -1.2740 c3         1 A97      -0.056200
@<TRIPOS>BOND
     1    14    15 1
     2    15    79 1
     3    79    16 1
     4    17    16 1
     5    17    18 2
     6    19    18 1
     7    16    21 2
     8    18    30 1
     9    21    20 1
    10    21     9 1
    11    30    20 1
    12    20    78 2
    13     9    31 1
    14    37     7 2
    15    27    35 2
    16    27    26 1
    17     7    31 1
    18     7     5 1
    19    35    36 1
    20    26     5 ar
    21    26    25 ar
    22     5     8 ar
    23    36    25 1
    24    36    77 1
    25    29    77 1
    26    25    24 ar
    27    28    77 1
    28     8     1 ar
    29    24     1 ar
    30     1     3 1
    31     3    11 ar
    32     3    23 ar
    33    11    10 ar
    34    23    13 ar
    35    10    32 ar
    36    13    32 ar
    37    13    33 1
    38    22    33 1
    39    22     2 1
    40    33     4 1
    41     2    34 1
    42     4    12 1
    43    12    34 1
    44    34     6 1
    45     2    38 1
    46     2    39 1
    47     4    40 1
    48     4    41 1
    49     6    42 1
    50     6    43 1
    51     6    44 1
    52     8    45 1
    53     9    46 1
    54     9    47 1
    55    10    48 1
    56    11    49 1
    57    12    50 1
    58    12    51 1
    59    14    52 1
    60    14    53 1
    61    14    54 1
    62    15    55 1
    63    15    56 1
    64    79    57 1
    65    79    58 1
    66    17    59 1
    67    19    60 1
    68    19    61 1
    69    19    62 1
    70    22    63 1
    71    22    64 1
    72    23    65 1
    73    24    66 1
    74    27    67 1
    75    77    68 1
    76    28    69 1
    77    28    70 1
    78    28    71 1
    79    29    72 1
    80    29    73 1
    81    29    74 1
    82    31    75 1
    83    30    76 1
@<TRIPOS>SUBSTRUCTURE
     1 A97         1 TEMP              0 ****  ****    0 ROOT
