@<TRIPOS>MOLECULE
A98
   22    22     1     0     0
SMALL
bcc


@<TRIPOS>ATOM
      1 C4           0.0000     0.0000     0.0000 cc         1 A98       0.421300
      2 C5          -0.2450     0.0040    -2.3610 c          1 A98       0.645100
      3 C6          -0.3510     0.0080    -4.7450 c3         1 A98       0.288700
      4 C3           1.0780     0.0000     2.2530 cc         1 A98       0.592700
      5 C2           3.3680    -0.0000     3.8610 c3         1 A98       0.097700
      6 C1           3.9490    -0.0000     5.2770 c3         1 A98       0.023900
      7 S1           1.5570    -0.0000     3.9490 ss         1 A98      -0.367400
      8 N1           1.8900     0.0000     1.2430 nd         1 A98      -0.310000
      9 N2           1.2950     0.0000     0.0000 nd         1 A98      -0.291000
     10 S2          -0.5810    -0.0000     1.6620 ss         1 A98      -0.387800
     11 N3          -0.8070     0.0050    -1.1360 ns         1 A98      -0.037400
     12 O1           0.9650    -0.0010    -2.4750 o          1 A98      -0.574000
     13 O2          -1.0250     0.0090    -3.4600 os         1 A98      -0.427900
     14 H1          -1.0880     0.0120    -5.5390 h1         1 A98       0.003033
     15 H2           0.2720     0.8900    -4.8270 h1         1 A98       0.003033
     16 H3           0.2650    -0.8790    -4.8290 h1         1 A98       0.003033
     17 H4           3.7190    -0.8750     3.3270 h1         1 A98       0.049700
     18 H5           3.6890     0.8930     3.3390 h1         1 A98       0.049700
     19 H6           3.6130    -0.8850     5.8050 hc         1 A98       0.014367
     20 H7           3.6130     0.8840     5.8050 hc         1 A98       0.014367
     21 H8           5.0310    -0.0000     5.2240 hc         1 A98       0.014367
     22 H9          -1.8030    -0.0160    -1.0420 hn         1 A98       0.176500
@<TRIPOS>BOND
     1     1     9 2   
     2     1    10 1   
     3     1    11 1   
     4     2    11 1   
     5     2    12 2   
     6     2    13 1   
     7     3    13 1   
     8     3    14 1   
     9     3    15 1   
    10     3    16 1   
    11     4     7 1   
    12     4     8 2   
    13     4    10 1   
    14     5     6 1   
    15     5     7 1   
    16     5    17 1   
    17     5    18 1   
    18     6    19 1   
    19     6    20 1   
    20     6    21 1   
    21     8     9 1   
    22    11    22 1   
@<TRIPOS>SUBSTRUCTURE
     1 A98         1 TEMP              0 ****  ****    0 ROOT
