@<TRIPOS>MOLECULE
molecule
   39    40     1     0     0
SMALL
bcc


@<TRIPOS>ATOM
      1 C15          0.0000     0.0000     0.0000 c3         1 A9E       0.106500
      2 C12          1.5550    -1.2660     2.1560 c3         1 A9E      -0.099900
      3 C13          2.0380     0.0000     1.4440 c3         1 A9E      -0.081400
      4 C14          1.5310     0.0000     0.0000 c3         1 A9E      -0.099900
      5 C11          0.0230    -1.2810     2.1800 c3         1 A9E       0.106500
      6 C9          -1.8210    -3.1820     1.1300 c3         1 A9E       0.048400
      7 C8          -3.4430    -6.4800     2.9120 ca         1 A9E      -0.093500
      8 C7          -2.9070    -5.3700     2.2910 ca         1 A9E      -0.186000
      9 C4          -4.6910    -6.9930     0.9330 ca         1 A9E      -0.093500
     10 C5          -4.1520    -5.8860     0.3040 ca         1 A9E      -0.186000
     11 C6          -3.2600    -5.0700     0.9830 ca         1 A9E       0.135100
     12 C3          -4.3320    -7.2930     2.2340 ca         1 A9E      -0.113300
     13 C2          -4.8940    -8.5180     2.9090 c3         1 A9E      -0.053100
     14 C1          -5.9470    -9.1580     2.0070 c3         1 A9E      -0.086100
     15 O1          -2.7340    -3.9770     0.3690 os         1 A9E      -0.292900
     16 O2          -1.7480    -1.8920    -0.8450 o          1 A9E      -0.579100
     17 N1          -0.4730    -1.1350     0.8050 n          1 A9E      -0.492800
     18 H1          -0.3500     0.9420     0.4050 h1         1 A9E       0.055450
     19 H2          -0.3490    -0.1000    -1.0200 h1         1 A9E       0.055450
     20 H3           2.0450    -2.1250     1.7130 hc         1 A9E       0.050700
     21 H4           1.8240    -1.2020     3.2030 hc         1 A9E       0.050700
     22 H5           1.7810     0.8610     2.0500 hc         1 A9E       0.044200
     23 H6           3.1140    -0.0500     1.3330 hc         1 A9E       0.044200
     24 H7           1.8810     0.8900    -0.5080 hc         1 A9E       0.050700
     25 H8           1.8810    -0.8750    -0.5340 hc         1 A9E       0.050700
     26 H9          -0.3250    -0.4710     2.8100 h1         1 A9E       0.055450
     27 H10         -0.3110    -2.2240     2.5950 h1         1 A9E       0.055450
     28 H11         -2.1390    -3.1600     2.1660 h1         1 A9E       0.057700
     29 H12         -0.8290    -3.6110     1.0660 h1         1 A9E       0.057700
     30 H14         -2.2100    -4.7340     2.8240 ha         1 A9E       0.137500
     31 H15         -5.3880    -7.6310     0.4030 ha         1 A9E       0.135000
     32 H16         -4.4340    -5.6520    -0.7160 ha         1 A9E       0.137500
     33 H17         -4.2520    -9.3670     2.7090 hc         1 A9E       0.055200
     34 H18         -4.9460    -8.3490     3.9780 hc         1 A9E       0.055200
     35 H19         -6.5770    -9.8130     2.5970 hc         1 A9E       0.035700
     36 H20         -6.5540    -8.3840     1.5550 hc         1 A9E       0.035700
     37 H21         -5.4560    -9.7320     1.2310 hc         1 A9E       0.035700
     38 C10         -1.3460    -2.0240     0.2920 c          1 A9E       0.669100
     39 H13         -3.1670    -6.7160     3.9330 ha         1 A9E       0.135000
@<TRIPOS>BOND
     1    16    38 2
     2     1     4 1
     3     1    17 1
     4    38    17 1
     5    38     6 1
     6     4     3 1
     7    17     5 1
     8    15     6 1
     9    15    11 1
    10     3     2 1
    11     2     5 1
    12    11    10 ar
    13    11     8 ar
    14    10     9 ar
    15     8     7 ar
    16     9    12 ar
    17     7    12 ar
    18    12    13 1
    19    14    13 1
    20     1    18 1
    21     1    19 1
    22     2    20 1
    23     2    21 1
    24     3    22 1
    25     3    23 1
    26     4    24 1
    27     4    25 1
    28     5    26 1
    29     5    27 1
    30     6    28 1
    31     6    29 1
    32     7    39 1
    33     8    30 1
    34     9    31 1
    35    10    32 1
    36    13    33 1
    37    13    34 1
    38    14    35 1
    39    14    36 1
    40    14    37 1
@<TRIPOS>SUBSTRUCTURE
     1 A9E         1 TEMP              0 ****  ****    0 ROOT
