@<TRIPOS>MOLECULE
A9E
   39    40     1     0     0
SMALL
bcc


@<TRIPOS>ATOM
      1 C15          0.0000     0.0000     0.0000 c3         1 A9E       0.049500
      2 C12          1.5550    -1.2660     2.1560 c3         1 A9E      -0.042900
      3 C13          2.0380     0.0000     1.4440 c3         1 A9E      -0.026400
      4 C14          1.5310     0.0000     0.0000 c3         1 A9E      -0.042900
      5 C11          0.0230    -1.2810     2.1800 c3         1 A9E       0.049500
      6 C9          -1.8210    -3.1820     1.1300 c3         1 A9E       0.104400
      7 C8          -3.4430    -6.4800     2.9120 ca         1 A9E      -0.068500
      8 C7          -2.9070    -5.3700     2.2910 ca         1 A9E      -0.171000
      9 C4          -4.6910    -6.9930     0.9330 ca         1 A9E      -0.068500
     10 C5          -4.1520    -5.8860     0.3040 ca         1 A9E      -0.171000
     11 C6          -3.2600    -5.0700     0.9830 ca         1 A9E       0.139100
     12 C3          -4.3320    -7.2930     2.2340 ca         1 A9E      -0.123300
     13 C2          -4.8940    -8.5180     2.9090 c3         1 A9E       0.012900
     14 C1          -5.9470    -9.1580     2.0070 c3         1 A9E       0.004900
     15 O1          -2.7340    -3.9770     0.3690 os         1 A9E      -0.262900
     16 O2          -1.7480    -1.8920    -0.8450 o          1 A9E      -0.624100
     17 N1          -0.4730    -1.1350     0.8050 n          1 A9E      -0.156800
     18 H1          -0.3500     0.9420     0.4050 h1         1 A9E       0.028700
     19 H2          -0.3490    -0.1000    -1.0200 h1         1 A9E       0.028700
     20 H3           2.0450    -2.1250     1.7130 hc         1 A9E       0.021700
     21 H4           1.8240    -1.2020     3.2030 hc         1 A9E       0.021700
     22 H5           1.7810     0.8610     2.0500 hc         1 A9E       0.017200
     23 H6           3.1140    -0.0500     1.3330 hc         1 A9E       0.017200
     24 H7           1.8810     0.8900    -0.5080 hc         1 A9E       0.021700
     25 H8           1.8810    -0.8750    -0.5340 hc         1 A9E       0.021700
     26 H9          -0.3250    -0.4710     2.8100 h1         1 A9E       0.028700
     27 H10         -0.3110    -2.2240     2.5950 h1         1 A9E       0.028700
     28 H11         -2.1390    -3.1600     2.1660 h1         1 A9E       0.023700
     29 H12         -0.8290    -3.6110     1.0660 h1         1 A9E       0.023700
     30 H14         -2.2100    -4.7340     2.8240 ha         1 A9E       0.116500
     31 H15         -5.3880    -7.6310     0.4030 ha         1 A9E       0.110500
     32 H16         -4.4340    -5.6520    -0.7160 ha         1 A9E       0.116500
     33 H17         -4.2520    -9.3670     2.7090 hc         1 A9E       0.025200
     34 H18         -4.9460    -8.3490     3.9780 hc         1 A9E       0.025200
     35 H19         -6.5770    -9.8130     2.5970 hc         1 A9E       0.005033
     36 H20         -6.5540    -8.3840     1.5550 hc         1 A9E       0.005033
     37 H21         -5.4560    -9.7320     1.2310 hc         1 A9E       0.005033
     38 C10         -1.3460    -2.0240     0.2920 c          1 A9E       0.591100
     39 H13         -3.1670    -6.7160     3.9330 ha         1 A9E       0.110500
@<TRIPOS>BOND
     1     1     4 1   
     2     1    17 1   
     3     1    18 1   
     4     1    19 1   
     5     2     3 1   
     6     2     5 1   
     7     2    20 1   
     8     2    21 1   
     9     3     4 1   
    10     3    22 1   
    11     3    23 1   
    12     4    24 1   
    13     4    25 1   
    14     5    17 1   
    15     5    26 1   
    16     5    27 1   
    17     6    15 1   
    18     6    28 1   
    19     6    29 1   
    20     6    38 1   
    21     7     8 ar  
    22     7    12 ar  
    23     7    39 1   
    24     8    11 ar  
    25     8    30 1   
    26     9    10 ar  
    27     9    12 ar  
    28     9    31 1   
    29    10    11 ar  
    30    10    32 1   
    31    11    15 1   
    32    12    13 1   
    33    13    14 1   
    34    13    33 1   
    35    13    34 1   
    36    14    35 1   
    37    14    36 1   
    38    14    37 1   
    39    16    38 2   
    40    17    38 1   
@<TRIPOS>SUBSTRUCTURE
     1 A9E         1 TEMP              0 ****  ****    0 ROOT
