@<TRIPOS>MOLECULE
molecule
   77    81     1     0     0
SMALL
bcc


@<TRIPOS>ATOM
      1 C24          0.0000     0.0000     0.0000 ca         1 A9G      -0.125000
      2 C25          1.3950     0.0000     0.0000 cp         1 A9G      -0.025000
      3 C26          2.1310    -0.0020    -1.2880 cp         1 A9G      -0.181300
      4 C28          2.1630     0.0030    -3.6760 ca         1 A9G      -0.264300
      5 C27          1.4350     0.0040    -2.5030 ca         1 A9G      -0.068000
      6 C19         -5.7320    -3.3260    -2.7500 cc         1 A9G       0.060400
      7 C22         -4.9550    -1.2110    -2.0800 c          1 A9G       0.691700
      8 C18         -5.6100    -3.8020    -1.4880 cc         1 A9G      -0.250000
      9 C16         -5.1430    -2.9640    -0.4670 cc         1 A9G       0.030800
     10 C10         -0.6970     0.0070     1.2020 ca         1 A9G      -0.092600
     11 C15         -4.8170    -1.6720    -0.7600 cd         1 A9G      -0.265400
     12 C14         -4.3120    -0.7500     0.3200 c3         1 A9G       0.182200
     13 C02          3.4880    -1.2230     5.0320 c3         1 A9G      -0.098400
     14 C03          3.2280     0.0220     4.1810 c3         1 A9G       0.057000
     15 C04          3.4890     1.2760     5.0180 c3         1 A9G      -0.110100
     16 C06          0.7340     0.0250     4.5340 cd         1 A9G      -0.101100
     17 C07         -0.3800     0.0220     3.7810 cc         1 A9G      -0.137400
     18 C08         -1.7970     0.0260     4.2930 c3         1 A9G      -0.015900
     19 C09          0.0150     0.0130     2.4210 ca         1 A9G      -0.052800
     20 C29          3.5530    -0.0030    -3.6130 ca         1 A9G       0.613200
     21 C31          3.9320     1.1420    -5.6380 c3         1 A9G       0.173300
     22 C32          4.7080     1.0620    -6.9550 c3         1 A9G       0.153800
     23 C34          6.5120    -0.0880    -5.8210 c3         1 A9G       0.153800
     24 C35          5.7350    -0.0090    -4.5050 c3         1 A9G       0.173300
     25 C37          3.5220    -0.0030    -1.3050 ca         1 A9G       0.449200
     26 C38          2.1010     0.0000     1.1990 ca         1 A9G      -0.117000
     27 C39          1.4210     0.0130     2.4090 ca         1 A9G      -0.046200
     28 N05          1.8360     0.0200     3.7250 na         1 A9G      -0.064400
     29 N21         -5.4000    -2.0430    -3.0410 ns         1 A9G      -0.407100
     30 N30          4.2930    -0.0020    -4.7890 nh         1 A9G      -0.703300
     31 N33          6.1500     1.0550    -6.6710 n7         1 A9G      -0.821200
     32 N36          4.1810    -0.0030    -2.4470 nb         1 A9G      -0.737000
     33 H1          -0.5410     0.0020    -0.9390 ha         1 A9G       0.137000
     34 H2           1.6580     0.0070    -4.6340 ha         1 A9G       0.144000
     35 H3           0.3520     0.0080    -2.5220 ha         1 A9G       0.144000
     36 H4          -6.3780    -3.6590    -4.7510 hc         1 A9G       0.059033
     37 H5          -7.1740    -4.6760    -3.5420 hc         1 A9G       0.059033
     38 H6          -5.5070    -5.0170    -4.0240 hc         1 A9G       0.059033
     39 H7          -5.9060    -4.8190    -1.2610 ha         1 A9G       0.149000
     40 H8          -5.3750    -4.4990     0.9900 hc         1 A9G       0.054700
     41 H9          -5.5740    -2.8570     1.6160 hc         1 A9G       0.054700
     42 H10         -3.9590    -3.4670     1.2300 hc         1 A9G       0.054700
     43 H12         -4.6720    -1.0900     1.2830 h1         1 A9G       0.065200
     44 H13         -4.6730     0.2550     0.1340 h1         1 A9G       0.065200
     45 H14          5.1380    -0.7230     6.3150 hc         1 A9G       0.037700
     46 H15          5.5620    -0.8600     4.6030 hc         1 A9G       0.037700
     47 H16          5.2600    -2.3180     5.5590 hc         1 A9G       0.037700
     48 H17          2.8910    -1.1750     5.9340 hc         1 A9G       0.052700
     49 H18          3.2200    -2.1080     4.4680 hc         1 A9G       0.052700
     50 H19          3.8890     0.0170     3.3220 h1         1 A9G       0.069700
     51 H20          2.8060     2.0610     4.7140 hc         1 A9G       0.048033
     52 H21          4.5090     1.6070     4.8660 hc         1 A9G       0.048033
     53 H22          3.3350     1.0490     6.0660 hc         1 A9G       0.048033
     54 H23          0.7540     0.0320     5.6170 h4         1 A9G       0.167000
     55 H24         -2.2660     0.9730     4.0510 hc         1 A9G       0.045033
     56 H25         -1.7930    -0.1100     5.3680 hc         1 A9G       0.045033
     57 H26         -2.3520    -0.7800     3.8300 hc         1 A9G       0.045033
     58 H27          4.1830     2.0630    -5.1270 h1         1 A9G       0.056200
     59 H28          2.8690     1.1150    -5.8440 h1         1 A9G       0.056200
     60 H29          4.4400     0.1510    -7.4770 h1         1 A9G       0.039950
     61 H30          4.4660     1.9210    -7.5690 h1         1 A9G       0.039950
     62 H31          6.2610    -1.0100    -6.3320 h1         1 A9G       0.039950
     63 H32          7.5750    -0.0610    -5.6140 h1         1 A9G       0.039950
     64 H33          6.0040     0.9010    -3.9820 h1         1 A9G       0.056200
     65 H34          5.9770    -0.8690    -3.8920 h1         1 A9G       0.056200
     66 H35          4.0700    -0.0030    -0.3700 h4         1 A9G       0.023100
     67 H36          3.1850    -0.0000     1.1880 ha         1 A9G       0.127000
     68 H37         -2.3480    -1.3400    -0.3190 hn         1 A9G       0.316500
     69 H38          6.6600     1.0060    -7.5310 hn         1 A9G       0.354800
     70 H11         -5.4960    -1.7090    -3.9800 hn         1 A9G       0.336500
     71 C11         -2.1720     0.0080     1.2040 c          1 A9G       0.674700
     72 C01          4.9700    -1.2850     5.4040 c3         1 A9G      -0.091100
     73 N13         -2.8470    -0.7500     0.3170 ns         1 A9G      -0.576900
     74 O12         -2.7780     0.6920     2.0050 o          1 A9G      -0.607100
     75 O23         -4.6670    -0.0580    -2.3580 o          1 A9G      -0.651500
     76 C20         -6.2330    -4.2330    -3.8440 c3         1 A9G      -0.063900
     77 C17         -5.0030    -3.4830     0.9410 c3         1 A9G      -0.062900
@<TRIPOS>BOND
     1    77     9 1
     2     8     9 1
     3     8     6 2
     4    76     6 1
     5     9    11 2
     6     6    29 1
     7    11    12 1
     8    11     7 1
     9    18    17 1
    10    29     7 1
    11    12    73 1
    12     7    75 2
    13    74    71 2
    14    73    71 1
    15    17    16 2
    16    17    19 1
    17    71    10 1
    18    16    28 1
    19    19    10 ar
    20    19    27 ar
    21    10     1 ar
    22    28    27 1
    23    28    14 1
    24    15    14 1
    25    27    26 ar
    26    72    13 1
    27     1     2 ar
    28    14    13 1
    29    26     2 ar
    30     2     3 1
    31     3    25 ar
    32     3     5 ar
    33    25    32 ar
    34     5     4 ar
    35    32    20 ar
    36    20     4 ar
    37    20    30 1
    38    30    24 1
    39    30    21 1
    40    24    23 1
    41    21    22 1
    42    23    31 1
    43    31    22 1
    44     1    33 1
    45     4    34 1
    46     5    35 1
    47    76    36 1
    48    76    37 1
    49    76    38 1
    50     8    39 1
    51    77    40 1
    52    77    41 1
    53    77    42 1
    54    12    43 1
    55    12    44 1
    56    72    45 1
    57    72    46 1
    58    72    47 1
    59    13    48 1
    60    13    49 1
    61    14    50 1
    62    15    51 1
    63    15    52 1
    64    15    53 1
    65    16    54 1
    66    18    55 1
    67    18    56 1
    68    18    57 1
    69    21    58 1
    70    21    59 1
    71    22    60 1
    72    22    61 1
    73    23    62 1
    74    23    63 1
    75    24    64 1
    76    24    65 1
    77    25    66 1
    78    26    67 1
    79    73    68 1
    80    31    69 1
    81    29    70 1
@<TRIPOS>SUBSTRUCTURE
     1 A9G         1 TEMP              0 ****  ****    0 ROOT
