@<TRIPOS>MOLECULE
A9G
   77    81     1     0     0
SMALL
bcc


@<TRIPOS>ATOM
      1 C24          0.0000     0.0000     0.0000 ca         1 A9G      -0.110000
      2 C25          1.3950     0.0000     0.0000 cp         1 A9G      -0.023000
      3 C26          2.1310    -0.0020    -1.2880 cp         1 A9G      -0.169300
      4 C28          2.1630     0.0030    -3.6760 ca         1 A9G      -0.240300
      5 C27          1.4350     0.0040    -2.5030 ca         1 A9G      -0.047000
      6 C19         -5.7320    -3.3260    -2.7500 cc         1 A9G      -0.120600
      7 C22         -4.9550    -1.2110    -2.0800 c          1 A9G       0.589700
      8 C18         -5.6100    -3.8020    -1.4880 cd         1 A9G      -0.218000
      9 C16         -5.1430    -2.9640    -0.4670 cd         1 A9G       0.024800
     10 C10         -0.6970     0.0070     1.2020 ca         1 A9G      -0.085600
     11 C15         -4.8170    -1.6720    -0.7600 cc         1 A9G      -0.276400
     12 C14         -4.3120    -0.7500     0.3200 c3         1 A9G       0.126200
     13 C02          3.4880    -1.2230     5.0320 c3         1 A9G      -0.042400
     14 C03          3.2280     0.0220     4.1810 c3         1 A9G      -0.069000
     15 C04          3.4890     1.2760     5.0180 c3         1 A9G      -0.017100
     16 C06          0.7340     0.0250     4.5340 cc         1 A9G      -0.263100
     17 C07         -0.3800     0.0220     3.7810 cd         1 A9G      -0.125400
     18 C08         -1.7970     0.0260     4.2930 c3         1 A9G       0.081100
     19 C09          0.0150     0.0130     2.4210 ca         1 A9G      -0.049800
     20 C29          3.5530    -0.0030    -3.6130 ca         1 A9G       0.486200
     21 C31          3.9320     1.1420    -5.6380 c3         1 A9G       0.143800
     22 C32          4.7080     1.0620    -6.9550 c3         1 A9G       0.143800
     23 C34          6.5120    -0.0880    -5.8210 c3         1 A9G       0.143800
     24 C35          5.7350    -0.0090    -4.5050 c3         1 A9G       0.143800
     25 C37          3.5220    -0.0030    -1.3050 ca         1 A9G       0.424200
     26 C38          2.1010     0.0000     1.1990 ca         1 A9G      -0.084000
     27 C39          1.4210     0.0130     2.4090 ca         1 A9G      -0.218200
     28 N05          1.8360     0.0200     3.7250 na         1 A9G       0.405600
     29 N21         -5.4000    -2.0430    -3.0410 ns         1 A9G       0.090900
     30 N30          4.2930    -0.0020    -4.7890 nh         1 A9G      -0.473300
     31 N33          6.1500     1.0550    -6.6710 n7         1 A9G      -0.584200
     32 N36          4.1810    -0.0030    -2.4470 nb         1 A9G      -0.622000
     33 H1          -0.5410     0.0020    -0.9390 ha         1 A9G       0.115000
     34 H2           1.6580     0.0070    -4.6340 ha         1 A9G       0.123000
     35 H3           0.3520     0.0080    -2.5220 ha         1 A9G       0.118000
     36 H4          -6.3780    -3.6590    -4.7510 hc         1 A9G       0.018367
     37 H5          -7.1740    -4.6760    -3.5420 hc         1 A9G       0.018367
     38 H6          -5.5070    -5.0170    -4.0240 hc         1 A9G       0.018367
     39 H7          -5.9060    -4.8190    -1.2610 ha         1 A9G       0.129000
     40 H8          -5.3750    -4.4990     0.9900 hc         1 A9G       0.018700
     41 H9          -5.5740    -2.8570     1.6160 hc         1 A9G       0.018700
     42 H10         -3.9590    -3.4670     1.2300 hc         1 A9G       0.018700
     43 H12         -4.6720    -1.0900     1.2830 h1         1 A9G       0.037700
     44 H13         -4.6730     0.2550     0.1340 h1         1 A9G       0.037700
     45 H14          5.1380    -0.7230     6.3150 hc         1 A9G       0.005367
     46 H15          5.5620    -0.8600     4.6030 hc         1 A9G       0.005367
     47 H16          5.2600    -2.3180     5.5590 hc         1 A9G       0.005367
     48 H17          2.8910    -1.1750     5.9340 hc         1 A9G       0.024200
     49 H18          3.2200    -2.1080     4.4680 hc         1 A9G       0.024200
     50 H19          3.8890     0.0170     3.3220 h1         1 A9G       0.048700
     51 H20          2.8060     2.0610     4.7140 hc         1 A9G       0.017033
     52 H21          4.5090     1.6070     4.8660 hc         1 A9G       0.017033
     53 H22          3.3350     1.0490     6.0660 hc         1 A9G       0.017033
     54 H23          0.7540     0.0320     5.6170 h4         1 A9G       0.145000
     55 H24         -2.2660     0.9730     4.0510 hc         1 A9G       0.013033
     56 H25         -1.7930    -0.1100     5.3680 hc         1 A9G       0.013033
     57 H26         -2.3520    -0.7800     3.8300 hc         1 A9G       0.013033
     58 H27          4.1830     2.0630    -5.1270 h1         1 A9G       0.027950
     59 H28          2.8690     1.1150    -5.8440 h1         1 A9G       0.027950
     60 H29          4.4400     0.1510    -7.4770 h1         1 A9G       0.010700
     61 H30          4.4660     1.9210    -7.5690 h1         1 A9G       0.010700
     62 H31          6.2610    -1.0100    -6.3320 h1         1 A9G       0.010700
     63 H32          7.5750    -0.0610    -5.6140 h1         1 A9G       0.010700
     64 H33          6.0040     0.9010    -3.9820 h1         1 A9G       0.027950
     65 H34          5.9770    -0.8690    -3.8920 h1         1 A9G       0.027950
     66 H35          4.0700    -0.0030    -0.3700 h4         1 A9G      -0.015900
     67 H36          3.1850    -0.0000     1.1880 ha         1 A9G       0.108000
     68 H37         -2.3480    -1.3400    -0.3190 hn         1 A9G       0.175500
     69 H38          6.6600     1.0060    -7.5310 hn         1 A9G       0.252800
     70 H11         -5.4960    -1.7090    -3.9800 hn         1 A9G       0.172500
     71 C11         -2.1720     0.0080     1.2040 c          1 A9G       0.593700
     72 C01          4.9700    -1.2850     5.4040 c3         1 A9G       0.005900
     73 N13         -2.8470    -0.7500     0.3170 ns         1 A9G      -0.186900
     74 O12         -2.7780     0.6920     2.0050 o          1 A9G      -0.649100
     75 O23         -4.6670    -0.0580    -2.3580 o          1 A9G      -0.701500
     76 C20         -6.2330    -4.2330    -3.8440 c3         1 A9G       0.058100
     77 C17         -5.0030    -3.4830     0.9410 c3         1 A9G       0.044100
@<TRIPOS>BOND
     1     1     2 ar  
     2     1    10 ar  
     3     1    33 1   
     4     2     3 1   
     5     2    26 ar  
     6     3     5 ar  
     7     3    25 ar  
     8     4     5 ar  
     9     4    20 ar  
    10     4    34 1   
    11     5    35 1   
    12     6     8 2   
    13     6    29 1   
    14     6    76 1   
    15     7    11 1   
    16     7    29 1   
    17     7    75 2   
    18     8     9 1   
    19     8    39 1   
    20     9    11 2   
    21     9    77 1   
    22    10    19 ar  
    23    10    71 1   
    24    11    12 1   
    25    12    43 1   
    26    12    44 1   
    27    12    73 1   
    28    13    14 1   
    29    13    48 1   
    30    13    49 1   
    31    13    72 1   
    32    14    15 1   
    33    14    28 1   
    34    14    50 1   
    35    15    51 1   
    36    15    52 1   
    37    15    53 1   
    38    16    17 2   
    39    16    28 1   
    40    16    54 1   
    41    17    18 1   
    42    17    19 1   
    43    18    55 1   
    44    18    56 1   
    45    18    57 1   
    46    19    27 ar  
    47    20    30 1   
    48    20    32 ar  
    49    21    22 1   
    50    21    30 1   
    51    21    58 1   
    52    21    59 1   
    53    22    31 1   
    54    22    60 1   
    55    22    61 1   
    56    23    24 1   
    57    23    31 1   
    58    23    62 1   
    59    23    63 1   
    60    24    30 1   
    61    24    64 1   
    62    24    65 1   
    63    25    32 ar  
    64    25    66 1   
    65    26    27 ar  
    66    26    67 1   
    67    27    28 1   
    68    29    70 1   
    69    31    69 1   
    70    36    76 1   
    71    37    76 1   
    72    38    76 1   
    73    40    77 1   
    74    41    77 1   
    75    42    77 1   
    76    45    72 1   
    77    46    72 1   
    78    47    72 1   
    79    68    73 1   
    80    71    73 1   
    81    71    74 2   
@<TRIPOS>SUBSTRUCTURE
     1 A9G         1 TEMP              0 ****  ****    0 ROOT
