@<TRIPOS>MOLECULE
molecule
   51    53     1     0     0
SMALL
bcc


@<TRIPOS>ATOM
      1 O1           0.0000     0.0000     0.0000 o          1 A9H      -0.846800
      2 C1           1.3420     0.0000     0.0000 c          1 A9H       0.896600
      3 O2           1.9470    -0.0000    -1.0460 o          1 A9H      -0.846800
      4 C2           2.1040     0.0000     1.3210 c3         1 A9H      -0.161000
      5 C3           1.6980    -1.2630     2.0770 c3         1 A9H      -0.070100
      6 C4           1.6350     1.2330     2.0940 c3         1 A9H      -0.046400
      7 C5           2.5060     1.4680     3.3240 c3         1 A9H      -0.087400
      8 C6           3.9500     1.6930     2.8790 c3         1 A9H      -0.064400
      9 C7           4.4890     0.4440     2.1760 c3         1 A9H      -0.045000
     10 C8           4.6370    -0.6890     3.1890 c3         1 A9H      -0.089100
     11 C9           3.5860     0.0520     1.0130 c3         1 A9H      -0.026700
     12 C10          4.0860    -1.2560     0.3960 c3         1 A9H      -0.045200
     13 C11          5.5380    -1.1070     0.0270 c2         1 A9H      -0.118200
     14 C12          6.3250    -0.2040     0.5730 ce         1 A9H      -0.122200
     15 C13          7.7440    -0.1240     0.1540 ce         1 A9H      -0.105000
     16 C14          5.8660     0.7810     1.6100 c3         1 A9H      -0.011500
     17 C15          6.9410     0.8770     2.6900 c3         1 A9H      -0.072400
     18 C16          8.2190     1.4270     2.0440 c3         1 A9H      -0.030200
     19 C17          8.5930     0.6250     0.8350 c2         1 A9H      -0.148400
     20 C18         10.0260     0.6780     0.3660 c3         1 A9H      -0.034500
     21 C19         10.3940     2.1210     0.0160 c3         1 A9H      -0.084600
     22 C20         10.9450     0.1720     1.4780 c3         1 A9H      -0.084600
     23 H2           0.6180    -1.3450     2.0900 hc         1 A9H       0.024700
     24 H3           2.1200    -2.1310     1.5830 hc         1 A9H       0.024700
     25 H4           2.0690    -1.2110     3.0930 hc         1 A9H       0.024700
     26 H5           0.6090     1.0850     2.4090 hc         1 A9H       0.047700
     27 H6           1.6930     2.1000     1.4470 hc         1 A9H       0.047700
     28 H7           2.4580     0.6010     3.9720 hc         1 A9H       0.025200
     29 H8           2.1520     2.3440     3.8550 hc         1 A9H       0.025200
     30 H9           4.5610     1.9060     3.7480 hc         1 A9H       0.026700
     31 H10          3.9860     2.5320     2.1950 hc         1 A9H       0.026700
     32 H11          3.6660    -1.1290     3.3830 hc         1 A9H       0.031033
     33 H12          5.3030    -1.4450     2.7910 hc         1 A9H       0.031033
     34 H13          5.0470    -0.2970     4.1120 hc         1 A9H       0.031033
     35 H14          3.7130     0.8170     0.2560 hc         1 A9H       0.070700
     36 H15          3.5090    -1.4790    -0.4930 hc         1 A9H       0.069700
     37 H16          3.9780    -2.0580     1.1160 hc         1 A9H       0.069700
     38 H17          5.9530    -1.7710    -0.7210 ha         1 A9H       0.104000
     39 H18          8.0830    -0.6740    -0.7150 ha         1 A9H       0.119000
     40 H19          5.7940     1.7500     1.1320 hc         1 A9H       0.051700
     41 H20          7.1340    -0.1070     3.1000 hc         1 A9H       0.041700
     42 H21          6.6110     1.5480     3.4740 hc         1 A9H       0.041700
     43 H22          9.0280     1.3820     2.7640 hc         1 A9H       0.038200
     44 H23          8.0530     2.4560     1.7510 hc         1 A9H       0.038200
     45 H24         10.1420     0.0530    -0.5110 hc         1 A9H       0.047700
     46 H25          9.6250     2.5460    -0.6180 hc         1 A9H       0.030700
     47 H26         11.3420     2.1340    -0.5080 hc         1 A9H       0.030700
     48 H27         10.4760     2.7040     0.9250 hc         1 A9H       0.030700
     49 H28         11.9180    -0.0630     1.0630 hc         1 A9H       0.030700
     50 H29         10.5180    -0.7190     1.9230 hc         1 A9H       0.030700
     51 H30         11.0510     0.9390     2.2360 hc         1 A9H       0.030700
@<TRIPOS>BOND
     1     7     6 1
     2     7     8 1
     3     6     4 1
     4     3     2 1
     5     8     9 1
     6     4     2 1
     7     4     5 1
     8     4    11 1
     9     2     1 1
    10     9    11 1
    11     9    10 1
    12     9    16 1
    13    11    12 1
    14    16    17 1
    15    16    14 1
    16    17    18 1
    17    18    19 1
    18    12    13 1
    19    14    13 2
    20    14    15 1
    21    19    15 2
    22    19    20 1
    23    21    20 1
    24    20    22 1
    25     5    23 1
    26     5    24 1
    27     5    25 1
    28     6    26 1
    29     6    27 1
    30     7    28 1
    31     7    29 1
    32     8    30 1
    33     8    31 1
    34    10    32 1
    35    10    33 1
    36    10    34 1
    37    11    35 1
    38    12    36 1
    39    12    37 1
    40    13    38 1
    41    15    39 1
    42    16    40 1
    43    17    41 1
    44    17    42 1
    45    18    43 1
    46    18    44 1
    47    20    45 1
    48    21    46 1
    49    21    47 1
    50    21    48 1
    51    22    49 1
    52    22    50 1
    53    22    51 1
@<TRIPOS>SUBSTRUCTURE
     1 A9H         1 TEMP              0 ****  ****    0 ROOT
