@<TRIPOS>MOLECULE
molecule
   29    30     1     0     0
SMALL
bcc


@<TRIPOS>ATOM
      1 C1           0.0000     0.0000     0.0000 ca         1 A9K      -0.199300
      2 C2           1.3830     0.0000     0.0000 ca         1 A9K      -0.106000
      3 C3           2.0760     0.0000     1.1940 ca         1 A9K      -0.101000
      4 C4           1.3800     0.0010     2.4020 cp         1 A9K       0.048000
      5 C5          -0.0150     0.0000     2.3960 ca         1 A9K       0.050400
      6 C6          -0.6980     0.0010     1.1950 ca         1 A9K      -0.101000
      7 Cl          -0.8920     0.0010     3.8940 cl         1 A9K      -0.035400
      8 C           -0.7500     0.0070    -1.3070 c3         1 A9K       0.162100
      9 N           -0.9940    -1.3770    -1.7380 nz         1 A9K      -0.810600
     10 C7           2.1190    -0.0000     3.6870 cp         1 A9K      -0.095000
     11 C12          2.0300    -1.0980     4.5480 ca         1 A9K       0.141100
     12 O            1.2660    -2.1700     4.2090 oh         1 A9K      -0.517100
     13 C11          2.7240    -1.0900     5.7460 ca         1 A9K      -0.170000
     14 C10          3.5010    -0.0010     6.0900 ca         1 A9K      -0.082000
     15 C9           3.5910     1.0880     5.2410 ca         1 A9K      -0.148000
     16 C8           2.9100     1.0910     4.0400 ca         1 A9K      -0.092000
     17 H1           1.9240    -0.0010    -0.9390 ha         1 A9K       0.136000
     18 H2           3.1590     0.0000     1.1930 ha         1 A9K       0.166000
     19 H3          -1.7810     0.0010     1.1880 ha         1 A9K       0.146000
     20 H4          -1.6960     0.5180    -1.1780 hx         1 A9K       0.112200
     21 H5          -0.1610     0.5200    -2.0580 hx         1 A9K       0.112200
     22 H6          -1.5510    -1.8460    -1.0520 hn         1 A9K       0.454133
     23 H7          -1.4770    -1.3730    -2.6140 hn         1 A9K       0.454133
     24 H9           1.8100    -2.9370     4.1480 ho         1 A9K       0.427000
     25 H10          2.6390    -1.9290     6.4270 ha         1 A9K       0.151000
     26 H11          4.0420     0.0020     7.0290 ha         1 A9K       0.147000
     27 H12          4.1990     1.9400     5.5180 ha         1 A9K       0.147000
     28 H13          3.0160     2.0710     3.5910 ha         1 A9K       0.148000
     29 HN3         -0.1200    -1.8500    -1.8510 hn         1 A9K       0.454133
@<TRIPOS>BOND
     1    12    11 1
     2     9     8 1
     3    11    13 ar
     4    11    10 ar
     5     7     5 1
     6     6     5 ar
     7     6     1 ar
     8    13    14 ar
     9     8     1 1
    10     5     4 ar
    11     1     2 ar
    12     4     3 ar
    13     4    10 1
    14     2     3 ar
    15    10    16 ar
    16    14    15 ar
    17    16    15 ar
    18     2    17 1
    19     3    18 1
    20     6    19 1
    21     8    20 1
    22     8    21 1
    23     9    22 1
    24     9    23 1
    25    12    24 1
    26    13    25 1
    27    14    26 1
    28    15    27 1
    29    16    28 1
    30    29     9 1
@<TRIPOS>SUBSTRUCTURE
     1 A9K         1 TEMP              0 ****  ****    0 ROOT
