@<TRIPOS>MOLECULE
molecule
   70    69     1     0     0
SMALL
bcc


@<TRIPOS>ATOM
      1 C1           0.0000     0.0000     0.0000 c          1 A9M       0.656100
      2 O1           1.2130     0.0000     0.0000 o          1 A9M      -0.613100
      3 C2          -0.7530     0.0000     1.3040 c3         1 A9M      -0.157400
      4 C3           0.2410     0.0000     2.4680 c3         1 A9M      -0.066400
      5 C4          -0.5240    -0.0000     3.7930 c3         1 A9M      -0.085400
      6 C5           0.4700    -0.0000     4.9550 c3         1 A9M      -0.080400
      7 C6          -0.2950    -0.0010     6.2810 c3         1 A9M      -0.082400
      8 C7           0.6990    -0.0010     7.4440 c3         1 A9M      -0.081400
      9 C8          -0.0660    -0.0010     8.7680 c3         1 A9M      -0.081400
     10 C9           0.9290    -0.0010     9.9310 c3         1 A9M      -0.082400
     11 C10          0.1640    -0.0010    11.2570 c3         1 A9M      -0.082400
     12 C11          1.1580    -0.0010    12.4190 c3         1 A9M      -0.082400
     13 C12          0.3930    -0.0010    13.7450 c3         1 A9M      -0.082400
     14 C13          1.3870    -0.0010    14.9080 c3         1 A9M      -0.082400
     15 C14          0.6220    -0.0010    16.2320 c3         1 A9M      -0.081400
     16 C15          1.6170    -0.0010    17.3950 c3         1 A9M      -0.082400
     17 C16          0.8520    -0.0020    18.7200 c3         1 A9M      -0.082400
     18 C17          1.8460    -0.0020    19.8830 c3         1 A9M      -0.082400
     19 C18          1.0810    -0.0020    21.2080 c3         1 A9M      -0.081400
     20 C19          2.0750    -0.0020    22.3720 c3         1 A9M      -0.084400
     21 C20          1.3100    -0.0020    23.6960 c3         1 A9M      -0.092100
     22 C22         -0.9360     0.0180    -3.5990 c3         1 A9M       0.120400
     23 C23          0.0580     0.0120    -2.4360 c3         1 A9M       0.116000
     24 OAC         -1.6780     1.2390    -3.5850 oh         1 A9M      -0.610800
     25 NAX         -0.6740     0.0060    -1.1680 ns         1 A9M      -0.584900
     26 H2          -1.3760    -0.8850     1.3620 hc         1 A9M       0.058700
     27 H2A         -1.3760     0.8840     1.3620 hc         1 A9M       0.058700
     28 H3           0.8630     0.8850     2.4100 hc         1 A9M       0.058700
     29 H3A          0.8640    -0.8840     2.4100 hc         1 A9M       0.058700
     30 H4          -1.1460    -0.8850     3.8500 hc         1 A9M       0.038200
     31 H4A         -1.1470     0.8840     3.8510 hc         1 A9M       0.038200
     32 H5           1.0930    -0.8840     4.8970 hc         1 A9M       0.044200
     33 H5A          1.0930     0.8850     4.8980 hc         1 A9M       0.044200
     34 H6          -0.9180     0.8830     6.3380 hc         1 A9M       0.040200
     35 H6A         -0.9170    -0.8860     6.3380 hc         1 A9M       0.040200
     36 H7           1.3220     0.8840     7.3870 hc         1 A9M       0.041700
     37 H7A          1.3230    -0.8850     7.3860 hc         1 A9M       0.041700
     38 H8          -0.6880    -0.8860     8.8250 hc         1 A9M       0.040700
     39 H8A         -0.6890     0.8830     8.8260 hc         1 A9M       0.040700
     40 H9           1.5510    -0.8860     9.8740 hc         1 A9M       0.041700
     41 H9A          1.5520     0.8830     9.8740 hc         1 A9M       0.041700
     42 H10         -0.4580     0.8840    11.3150 hc         1 A9M       0.040700
     43 H10A        -0.4590    -0.8850    11.3140 hc         1 A9M       0.040700
     44 H11          1.7810     0.8830    12.3620 hc         1 A9M       0.041200
     45 H11A         1.7800    -0.8860    12.3610 hc         1 A9M       0.041200
     46 H12         -0.2300    -0.8850    13.8020 hc         1 A9M       0.040700
     47 H12A        -0.2300     0.8830    13.8020 hc         1 A9M       0.040700
     48 H13          2.0110    -0.8850    14.8500 hc         1 A9M       0.040700
     49 H13A         2.0100     0.8840    14.8510 hc         1 A9M       0.040700
     50 H14         -0.0000    -0.8860    16.2890 hc         1 A9M       0.040700
     51 H14A        -0.0010     0.8830    16.2900 hc         1 A9M       0.040700
     52 H15          2.2390     0.8840    17.3380 hc         1 A9M       0.040700
     53 H15A         2.2400    -0.8850    17.3380 hc         1 A9M       0.040700
     54 H16          0.2280     0.8820    18.7770 hc         1 A9M       0.040700
     55 H16A         0.2290    -0.8870    18.7770 hc         1 A9M       0.040700
     56 H17          2.4680     0.8830    19.8260 hc         1 A9M       0.040700
     57 H17A         2.4690    -0.8860    19.8250 hc         1 A9M       0.040700
     58 H18          0.4580     0.8820    21.2660 hc         1 A9M       0.040700
     59 H18A         0.4580    -0.8870    21.2660 hc         1 A9M       0.040700
     60 H19          2.6980     0.8820    22.3140 hc         1 A9M       0.039700
     61 H19A         2.6980    -0.8870    22.3140 hc         1 A9M       0.039700
     62 H20          0.6880     0.8830    23.7530 hc         1 A9M       0.032367
     63 H20A         0.6870    -0.8860    23.7540 hc         1 A9M       0.032367
     64 H20B         2.0140    -0.0020    24.5190 hc         1 A9M       0.032367
     65 H22         -0.3970    -0.0670    -4.5350 h1         1 A9M       0.029200
     66 H22A        -1.6160    -0.8200    -3.4970 h1         1 A9M       0.029200
     67 H23          0.6810     0.8960    -2.4890 h1         1 A9M       0.061700
     68 H23A         0.6810    -0.8730    -2.4970 h1         1 A9M       0.061700
     69 HOAC        -2.1230     1.3460    -4.4100 ho         1 A9M       0.405000
     70 HNAX        -1.6750    -0.0090    -1.1680 hn         1 A9M       0.319500
@<TRIPOS>BOND
     1     1     2 2
     2     1     3 1
     3     1    25 1
     4     3     4 1
     5     4     5 1
     6     5     6 1
     7     6     7 1
     8     7     8 1
     9     8     9 1
    10     9    10 1
    11    10    11 1
    12    11    12 1
    13    12    13 1
    14    13    14 1
    15    14    15 1
    16    15    16 1
    17    16    17 1
    18    17    18 1
    19    18    19 1
    20    19    20 1
    21    20    21 1
    22    22    23 1
    23    22    24 1
    24    23    25 1
    25     3    26 1
    26     3    27 1
    27     4    28 1
    28     4    29 1
    29     5    30 1
    30     5    31 1
    31     6    32 1
    32     6    33 1
    33     7    34 1
    34     7    35 1
    35     8    36 1
    36     8    37 1
    37     9    38 1
    38     9    39 1
    39    10    40 1
    40    10    41 1
    41    11    42 1
    42    11    43 1
    43    12    44 1
    44    12    45 1
    45    13    46 1
    46    13    47 1
    47    14    48 1
    48    14    49 1
    49    15    50 1
    50    15    51 1
    51    16    52 1
    52    16    53 1
    53    17    54 1
    54    17    55 1
    55    18    56 1
    56    18    57 1
    57    19    58 1
    58    19    59 1
    59    20    60 1
    60    20    61 1
    61    21    62 1
    62    21    63 1
    63    21    64 1
    64    22    65 1
    65    22    66 1
    66    23    67 1
    67    23    68 1
    68    24    69 1
    69    25    70 1
@<TRIPOS>SUBSTRUCTURE
     1 A9M         1 TEMP              0 ****  ****    0 ROOT
