@<TRIPOS>MOLECULE
A9N
   38    40     1     0     0
SMALL
bcc


@<TRIPOS>ATOM
      1 O3          0.8570   -0.7440   -0.1760 o         1 A9N     -0.573800
      2 S           2.0710   -0.0900   -0.2060 sy        1 A9N      1.487200
      3 O2          2.9570   -0.1880    0.8500 o         1 A9N     -0.573800
      4 N2          2.9720   -1.0690   -1.5860 n4        1 A9N     -0.684900
      5 C13         3.6300   -2.2680   -1.0450 cx        1 A9N      0.040900
      6 C15         2.9970   -3.6190   -1.1630 cu        1 A9N     -0.124700
      7 C14         4.0520   -3.4000   -1.9250 cu        1 A9N     -0.124700
      8 C11         2.0890    1.3360   -0.9520 ca        1 A9N     -0.536500
      9 C9          1.1210    1.7550   -1.8960 ca        1 A9N      0.077700
     10 C10         0.0160    0.8620   -2.3170 c3        1 A9N     -0.102800
     11 C8          1.1880    3.0460   -2.4310 ca        1 A9N     -0.153000
     12 C7          2.1810    3.9360   -2.0420 ca        1 A9N      0.000000
     13 C12         3.0910    2.2620   -0.5710 ca        1 A9N     -0.024000
     14 C6          3.1480    3.5540   -1.0880 ca        1 A9N      0.013000
     15 C5          4.1650    4.4750   -0.6570 cc        1 A9N     -0.329600
     16 C2          4.0340    5.9330   -0.4840 cc        1 A9N      0.346600
     17 C1          2.8180    6.7370   -0.7100 c3        1 A9N     -0.143400
     18 C3          5.4820    4.2060   -0.2970 cd        1 A9N      0.310000
     19 C4          6.3260    3.0160   -0.2040 c3        1 A9N     -0.152400
     20 O1          6.0850    5.4290    0.0490 os        1 A9N     -0.091100
     21 N1          5.2200    6.4170   -0.0620 nd        1 A9N     -0.329300
     22 H2          2.3000   -1.3430   -2.3010 hn        1 A9N      0.441300
     23 H13         4.2340   -1.9770   -0.1500 hx        1 A9N      0.151700
     24 H15         2.2070   -4.2340   -0.7700 ha        1 A9N      0.232000
     25 H14         4.7950   -3.7080   -2.6380 ha        1 A9N      0.232000
     26 H12         3.8440    1.9590    0.1840 ha        1 A9N      0.170000
     27 H101       -0.6920    0.6910   -1.4620 hc        1 A9N      0.077700
     28 H102       -0.5670    1.3080   -3.1630 hc        1 A9N      0.077700
     29 H103        0.3980   -0.1350   -2.6500 hc        1 A9N      0.077700
     30 H8          0.4340    3.3640   -3.1720 ha        1 A9N      0.171000
     31 H7          2.2200    4.9490   -2.4810 ha        1 A9N      0.174000
     32 H11C        2.7780    7.0780   -1.7760 hc        1 A9N      0.066700
     33 H12C        2.8040    7.6450   -0.0550 hc        1 A9N      0.066700
     34 H13C        1.9090    6.1250   -0.4860 hc        1 A9N      0.066700
     35 H41C        6.0290    2.2710   -0.9820 hc        1 A9N      0.073367
     36 H42C        7.4040    3.2870   -0.3490 hc        1 A9N      0.073367
     37 H43C        6.2180    2.5510    0.8110 hc        1 A9N      0.073367
     38 H22         3.6780   -0.4920   -2.0390 hn        1 A9N      0.441300
@<TRIPOS>BOND
     1    1    2 2   
     2    2    3 2   
     3    2    4 1   
     4    2    8 1   
     5    4    5 1   
     6    4   22 1   
     7    4   38 1   
     8    5    6 1   
     9    5    7 1   
    10    5   23 1   
    11    6    7 2   
    12    6   24 1   
    13    7   25 1   
    14    8    9 ar  
    15    8   13 ar  
    16    9   10 1   
    17    9   11 ar  
    18   10   27 1   
    19   10   28 1   
    20   10   29 1   
    21   11   12 ar  
    22   11   30 1   
    23   12   14 ar  
    24   12   31 1   
    25   13   14 ar  
    26   13   26 1   
    27   14   15 1   
    28   15   16 1   
    29   15   18 2   
    30   16   17 1   
    31   16   21 2   
    32   17   32 1   
    33   17   33 1   
    34   17   34 1   
    35   18   19 1   
    36   18   20 1   
    37   19   35 1   
    38   19   36 1   
    39   19   37 1   
    40   20   21 1   
@<TRIPOS>SUBSTRUCTURE
     1 A9N         1 TEMP              0 ****  ****    0 ROOT
