@<TRIPOS>MOLECULE
A9N
   38    40     1     0     0
SMALL
bcc


@<TRIPOS>ATOM
      1 O3          0.8550   -0.7220   -0.1070 o         1 A9N     -0.573800
      2 S           2.0710   -0.0720   -0.1660 sy        1 A9N      1.487200
      3 O2          2.9760   -0.1650    0.8740 o         1 A9N     -0.573800
      4 N2          2.9410   -1.0670   -1.5540 n4        1 A9N     -0.684900
      5 C13         3.6030   -2.2640   -1.0160 cx        1 A9N      0.040900
      6 C15         2.9620   -3.6130   -1.1110 cu        1 A9N     -0.124700
      7 C14         4.0050   -3.4060   -1.8950 cu        1 A9N     -0.124700
      8 C11         2.0790    1.3470   -0.9240 ca        1 A9N     -0.536500
      9 C9          1.0940    1.7620   -1.8530 ca        1 A9N      0.077700
     10 C10        -0.0220    0.8690   -2.2450 c3        1 A9N     -0.102800
     11 C8          1.1550    3.0470   -2.4010 ca        1 A9N     -0.153000
     12 C7          2.1590    3.9370   -2.0380 ca        1 A9N      0.000000
     13 C12         3.0910    2.2730   -0.5710 ca        1 A9N     -0.024000
     14 C6          3.1430    3.5600   -1.1000 ca        1 A9N      0.013000
     15 C5          4.1710    4.4800   -0.6970 cc        1 A9N     -0.329600
     16 C2          4.0490    5.9400   -0.5340 cc        1 A9N      0.346600
     17 C1          2.8310    6.7470   -0.7430 c3        1 A9N     -0.143400
     18 C3          5.4940    4.2090   -0.3600 cd        1 A9N      0.310000
     19 C4          6.3360    3.0180   -0.2730 c3        1 A9N     -0.152400
     20 O1          6.1080    5.4330   -0.0370 os        1 A9N     -0.091100
     21 N1          5.2440    6.4230   -0.1400 nd        1 A9N     -0.329300
     22 H2          3.6420   -0.4970   -2.0250 hn        1 A9N      0.441300
     23 H13         4.2250   -1.9700   -0.1340 hx        1 A9N      0.151700
     24 H15         2.1770   -4.2210   -0.6990 ha        1 A9N      0.232000
     25 H14         4.7330   -3.7220   -2.6180 ha        1 A9N      0.232000
     26 H12         3.8570    1.9730    0.1720 ha        1 A9N      0.170000
     27 H101       -0.7150    0.7080   -1.3750 hc        1 A9N      0.077700
     28 H102        0.3500   -0.1320   -2.5770 hc        1 A9N      0.077700
     29 H103       -0.6190    1.3100   -3.0830 hc        1 A9N      0.077700
     30 H8          0.3880    3.3620   -3.1290 ha        1 A9N      0.171000
     31 H7          2.1920    4.9470   -2.4870 ha        1 A9N      0.174000
     32 H11C        2.7720    7.0790   -1.8110 hc        1 A9N      0.066700
     33 H12C        1.9250    6.1390   -0.4970 hc        1 A9N      0.066700
     34 H13C        2.8330    7.6610   -0.0950 hc        1 A9N      0.066700
     35 H41C        6.2450    2.5610    0.7470 hc        1 A9N      0.073367
     36 H42C        7.4120    3.2830   -0.4420 hc        1 A9N      0.073367
     37 H43C        6.0210    2.2670   -1.0390 hc        1 A9N      0.073367
     38 H22         2.2550   -1.3430   -2.2550 hn        1 A9N      0.441300
@<TRIPOS>BOND
     1    1    2 2   
     2    2    3 2   
     3    2    4 1   
     4    2    8 1   
     5    4    5 1   
     6    4   22 1   
     7    4   38 1   
     8    5    6 1   
     9    5    7 1   
    10    5   23 1   
    11    6    7 2   
    12    6   24 1   
    13    7   25 1   
    14    8    9 ar  
    15    8   13 ar  
    16    9   10 1   
    17    9   11 ar  
    18   10   27 1   
    19   10   28 1   
    20   10   29 1   
    21   11   12 ar  
    22   11   30 1   
    23   12   14 ar  
    24   12   31 1   
    25   13   14 ar  
    26   13   26 1   
    27   14   15 1   
    28   15   16 1   
    29   15   18 2   
    30   16   17 1   
    31   16   21 2   
    32   17   32 1   
    33   17   33 1   
    34   17   34 1   
    35   18   19 1   
    36   18   20 1   
    37   19   35 1   
    38   19   36 1   
    39   19   37 1   
    40   20   21 1   
@<TRIPOS>SUBSTRUCTURE
     1 A9N         1 TEMP              0 ****  ****    0 ROOT
