@<TRIPOS>MOLECULE
A9O
   27    28     1     0     0
SMALL
bcc


@<TRIPOS>ATOM
      1 C5          0.0150    0.4210   -0.1000 c3        1 A9O     -0.135400
      2 C4          1.4870    0.3380   -0.1150 cc        1 A9O      0.335600
      3 N           2.2940    0.4270    0.9620 nd        1 A9O     -0.365300
      4 O           3.5500    0.3110    0.5790 os        1 A9O     -0.117100
      5 C6          2.3220    0.1410   -1.3120 cc        1 A9O     -0.273600
      6 C3          3.6190    0.1310   -0.8220 cd        1 A9O      0.279000
      7 C2          4.9580   -0.0190   -1.4100 c3        1 A9O     -0.119700
      8 C1          5.8710    1.1330   -1.0650 c3        1 A9O     -0.093100
      9 C7          1.8660   -0.0090   -2.6720 ca        1 A9O     -0.006000
     10 C12         0.8460    0.8120   -3.1760 ca        1 A9O     -0.120000
     11 C11         0.4140    0.6680   -4.4930 ca        1 A9O     -0.129000
     12 C10         0.9910   -0.2950   -5.3200 ca        1 A9O     -0.126000
     13 C9          2.0040   -1.1170   -4.8260 ca        1 A9O     -0.129000
     14 C8          2.4410   -0.9760   -3.5100 ca        1 A9O     -0.120000
     15 H51C       -0.4010   -0.1270   -0.9820 hc        1 A9O      0.059700
     16 H52C       -0.3050    1.4920   -0.1600 hc        1 A9O      0.059700
     17 H53C       -0.4100   -0.0220    0.8350 hc        1 A9O      0.059700
     18 H21C        4.8460   -0.1020   -2.5260 hc        1 A9O      0.067200
     19 H22C        5.4080   -0.9810   -1.0370 hc        1 A9O      0.067200
     20 H11C        5.4750    2.0900   -1.4830 hc        1 A9O      0.045700
     21 H12C        5.9590    1.2430    0.0440 hc        1 A9O      0.045700
     22 H13C        6.8860    0.9510   -1.4900 hc        1 A9O      0.045700
     23 H12         0.3930    1.5760   -2.5270 ha        1 A9O      0.135500
     24 H8          3.2350   -1.6320   -3.1210 ha        1 A9O      0.135500
     25 H11        -0.3840    1.3190   -4.8800 ha        1 A9O      0.133500
     26 H10         0.6480   -0.4070   -6.3590 ha        1 A9O      0.133000
     27 H9          2.4590   -1.8790   -5.4740 ha        1 A9O      0.133500
@<TRIPOS>BOND
     1    1    2 1   
     2    1   15 1   
     3    1   16 1   
     4    1   17 1   
     5    2    3 2   
     6    2    5 1   
     7    3    4 1   
     8    4    6 1   
     9    5    6 2   
    10    5    9 1   
    11    6    7 1   
    12    7    8 1   
    13    7   18 1   
    14    7   19 1   
    15    8   20 1   
    16    8   21 1   
    17    8   22 1   
    18    9   10 ar  
    19    9   14 ar  
    20   10   11 ar  
    21   10   23 1   
    22   11   12 ar  
    23   11   25 1   
    24   12   13 ar  
    25   12   26 1   
    26   13   14 ar  
    27   13   27 1   
    28   14   24 1   
@<TRIPOS>SUBSTRUCTURE
     1 A9O         1 TEMP              0 ****  ****    0 ROOT
