@<TRIPOS>MOLECULE
A9P
   24    25     1     0     0
SMALL
bcc


@<TRIPOS>ATOM
      1 C5          0.0500   -0.3610   -0.0210 c3        1 A9P     -0.135400
      2 C4          1.5120   -0.1710   -0.0150 cc        1 A9P      0.336600
      3 N           2.2910   -0.1020    1.0840 nd        1 A9P     -0.365300
      4 O           3.5450    0.0800    0.7220 os        1 A9P     -0.119100
      5 C6          2.3650   -0.0130   -1.2050 cc        1 A9P     -0.272600
      6 C3          3.6420    0.1480   -0.6870 cd        1 A9P      0.277000
      7 C2          4.9780    0.3540   -1.2430 c3        1 A9P     -0.141400
      8 C7          1.9550   -0.0190   -2.5870 ca        1 A9P     -0.005000
      9 C12         2.5700    0.8460   -3.5070 ca        1 A9P     -0.121000
     10 C11         2.1830    0.8420   -4.8450 ca        1 A9P     -0.128500
     11 C10         1.1820   -0.0240   -5.2830 ca        1 A9P     -0.126000
     12 C9          0.5700   -0.8900   -4.3780 ca        1 A9P     -0.128500
     13 C8          0.9520   -0.8900   -3.0380 ca        1 A9P     -0.121000
     14 H51C       -0.3890    0.1280   -0.9270 hc        1 A9P      0.059700
     15 H52C       -0.1900   -1.4540   -0.0510 hc        1 A9P      0.059700
     16 H53C       -0.4240    0.0790    0.8920 hc        1 A9P      0.059700
     17 H21C        5.7500   -0.1500   -0.6100 hc        1 A9P      0.067033
     18 H22C        5.2110    1.4500   -1.2780 hc        1 A9P      0.067033
     19 H23C        5.0230   -0.0580   -2.2820 hc        1 A9P      0.067033
     20 H12         3.3590    1.5320   -3.1620 ha        1 A9P      0.135000
     21 H8          0.4720   -1.5820   -2.3290 ha        1 A9P      0.135000
     22 H11         2.6690    1.5270   -5.5560 ha        1 A9P      0.133500
     23 H10         0.8770   -0.0250   -6.3400 ha        1 A9P      0.133000
     24 H9         -0.2170   -1.5780   -4.7210 ha        1 A9P      0.133500
@<TRIPOS>BOND
     1    1    2 1   
     2    1   14 1   
     3    1   15 1   
     4    1   16 1   
     5    2    3 2   
     6    2    5 1   
     7    3    4 1   
     8    4    6 1   
     9    5    6 2   
    10    5    8 1   
    11    6    7 1   
    12    7   17 1   
    13    7   18 1   
    14    7   19 1   
    15    8    9 ar  
    16    8   13 ar  
    17    9   10 ar  
    18    9   20 1   
    19   10   11 ar  
    20   10   22 1   
    21   11   12 ar  
    22   11   23 1   
    23   12   13 ar  
    24   12   24 1   
    25   13   21 1   
@<TRIPOS>SUBSTRUCTURE
     1 A9P         1 TEMP              0 ****  ****    0 ROOT
