@<TRIPOS>MOLECULE
A9Q
   51    53     1     0     0
SMALL
bcc


@<TRIPOS>ATOM
      1 C4           0.0000     0.0000     0.0000 ca         1 A9Q      -0.045400
      2 C14          1.0110    -2.1470    -4.8520 ca         1 A9Q       0.132100
      3 C5           1.3910     0.0000     0.0000 ca         1 A9Q      -0.075300
      4 C6           2.0950     0.0000     1.1830 ca         1 A9Q      -0.117000
      5 C8          -0.0830    -0.0070    -2.4030 c          1 A9Q       0.598500
      6 C10          2.1010    -0.0010    -1.3330 c3         1 A9Q       0.103300
      7 C12          2.0730    -1.4230    -4.3280 ca         1 A9Q      -0.136300
      8 C13          3.3210    -2.0050    -4.2260 ca         1 A9Q      -0.108000
      9 C3          -0.6850     0.0010     1.2080 ca         1 A9Q      -0.096000
     10 C1           1.4110    -0.0000     2.3910 ca         1 A9Q       0.044100
     11 C15          1.2030    -3.4540    -5.2710 ca         1 A9Q      -0.167000
     12 C16          2.4510    -4.0370    -5.1680 ca         1 A9Q      -0.151000
     13 C17          3.5120    -3.3130    -4.6460 ca         1 A9Q       0.096100
     14 C2           0.0190     0.0010     2.4000 ca         1 A9Q       0.058100
     15 C21         -1.2660    -2.3780    -5.4950 c3         1 A9Q       0.235700
     16 C28          3.5270    -0.0020     3.4780 c3         1 A9Q       0.256700
     17 N25          0.4590    -2.0020     4.7240 nz         1 A9Q      -0.170500
     18 N7          -0.6950    -0.0060    -1.2130 ns         1 A9Q      -0.009100
     19 N9           1.2550    -0.0010    -2.5400 n          1 A9Q      -0.146800
     20 O18          4.7420    -3.8870    -4.5450 os         1 A9Q      -0.311900
     21 O22          2.1000     0.0000     3.5640 os         1 A9Q      -0.377900
     22 O23         -0.6510     0.0020     3.5830 os         1 A9Q      -0.307800
     23 O29         -0.7680    -0.0130    -3.4070 o          1 A9Q      -0.667500
     24 S24         -0.9570    -1.3880     4.1230 s6         1 A9Q       1.262400
     25 H1           3.1780    -0.0010     1.1720 ha         1 A9Q       0.140000
     26 H2           1.2110     0.5080    -4.5690 h1         1 A9Q       0.044700
     27 H3           2.8200     0.5080    -3.8330 h1         1 A9Q       0.044700
     28 H4           2.7330    -0.8800    -1.3710 h1         1 A9Q       0.029700
     29 H5           2.7350     0.8760    -1.3730 h1         1 A9Q       0.029700
     30 H6           4.2680    -1.5260    -4.0110 ha         1 A9Q       0.121000
     31 H7          -1.7690     0.0030     1.2170 ha         1 A9Q       0.142000
     32 H8           0.3730    -4.0190    -5.6790 ha         1 A9Q       0.126000
     33 H9           2.6100    -5.0450    -5.5320 ha         1 A9Q       0.123000
     34 H10          5.8860    -5.5730    -4.8510 h1         1 A9Q      -0.000967
     35 H11          4.6140    -5.2910    -6.0480 h1         1 A9Q      -0.000967
     36 H12          4.1940    -5.8700    -4.4300 h1         1 A9Q      -0.000967
     37 H13         -2.1830    -1.8020    -5.5300 h1         1 A9Q      -0.000633
     38 H14         -0.9390    -2.5970    -6.5040 h1         1 A9Q      -0.000633
     39 H15         -1.4430    -3.3060    -4.9640 h1         1 A9Q      -0.000633
     40 H16          3.8590     0.8870     2.9550 h1         1 A9Q       0.012700
     41 H17          3.9490    -0.0130     4.4760 h1         1 A9Q       0.012700
     42 H18          3.8550    -0.8820     2.9380 h1         1 A9Q       0.012700
     43 H19          0.9440    -1.2880     5.2300 hn         1 A9Q       0.324467
     44 H20          0.2560    -2.7660     5.3380 hn         1 A9Q       0.324467
     45 H21         -1.6960    -0.0110    -1.1900 hn         1 A9Q       0.195500
     46 C11          1.8650    -0.0020    -3.8730 c3         1 A9Q       0.145300
     47 C20          4.8660    -5.2370    -4.9960 c3         1 A9Q       0.245700
     48 O26         -1.2970    -2.1880     2.9990 o          1 A9Q      -0.512300
     49 O27         -1.8200    -1.2040     5.2360 o          1 A9Q      -0.512300
     50 H253         1.0270    -2.3310     3.9690 hn         1 A9Q       0.324467
     51 O19         -0.2190    -1.5760    -4.9480 os         1 A9Q      -0.266900
@<TRIPOS>BOND
     1     1     3 ar  
     2     1     9 ar  
     3     1    18 1   
     4     2     7 ar  
     5     2    11 ar  
     6     2    51 1   
     7     3     4 ar  
     8     3     6 1   
     9     4    10 ar  
    10     4    25 1   
    11     5    18 1   
    12     5    19 1   
    13     5    23 2   
    14     6    19 1   
    15     6    28 1   
    16     6    29 1   
    17     7     8 ar  
    18     7    46 1   
    19     8    13 ar  
    20     8    30 1   
    21     9    14 ar  
    22     9    31 1   
    23    10    14 ar  
    24    10    21 1   
    25    11    12 ar  
    26    11    32 1   
    27    12    13 ar  
    28    12    33 1   
    29    13    20 1   
    30    14    22 1   
    31    15    37 1   
    32    15    38 1   
    33    15    39 1   
    34    15    51 1   
    35    16    21 1   
    36    16    40 1   
    37    16    41 1   
    38    16    42 1   
    39    17    24 1   
    40    17    43 1   
    41    17    44 1   
    42    17    50 1   
    43    18    45 1   
    44    19    46 1   
    45    20    47 1   
    46    22    24 1   
    47    24    48 2   
    48    24    49 2   
    49    26    46 1   
    50    27    46 1   
    51    34    47 1   
    52    35    47 1   
    53    36    47 1   
@<TRIPOS>SUBSTRUCTURE
     1 A9Q         1 TEMP              0 ****  ****    0 ROOT
