@<TRIPOS>MOLECULE
molecule
   38    41     1     0     0
SMALL
bcc


@<TRIPOS>ATOM
      1 N3           0.0000     0.0000     0.0000 nc         1 A9R      -0.511800
      2 C4           1.3080     0.0000     0.0000 cd         1 A9R       0.363200
      3 C5           0.6390     0.0000     2.1340 cc         1 A9R      -0.096300
      4 C6           1.7460     0.0000     1.3380 cd         1 A9R      -0.265300
      5 C7           3.1580    -0.0000     1.7980 cd         1 A9R      -0.034000
      6 C8           3.9950    -1.1100     1.5200 cd         1 A9R       0.160100
      7 C10          4.4160    -3.2560     0.5910 c3         1 A9R       0.122700
      8 C17          5.6860     2.0080     3.6090 cc         1 A9R      -0.297900
      9 C20          3.5310     5.0170     4.1900 ca         1 A9R      -0.081000
     10 C21          4.3750     5.7370     5.0270 ca         1 A9R      -0.269300
     11 C22          5.6080     5.2120     5.3630 ca         1 A9R       0.436200
     12 N2          -0.4440    -0.0000     1.3280 na         1 A9R       0.067400
     13 O9           3.5120    -2.1760     0.8330 os         1 A9R      -0.309900
     14 C11          5.2910    -1.0980     1.9500 cc         1 A9R      -0.213000
     15 C12          3.6510     1.0660     2.4830 cc         1 A9R      -0.063300
     16 N13          4.9450     1.0760     2.9110 na         1 A9R       0.042700
     17 C14          5.7740     0.0150     2.6600 cc         1 A9R       0.023700
     18 N15          6.9660     0.2850     3.1850 nd         1 A9R      -0.334600
     19 C16          6.9360     1.4800     3.7680 cd         1 A9R       0.103600
     20 C18          5.2160     3.3170     4.1010 ca         1 A9R       0.539100
     21 C19          3.9570     3.7890     3.7210 ca         1 A9R      -0.277300
     22 N29          5.9930     4.0390     4.9030 nb         1 A9R      -0.692000
     23 H1           1.9430    -0.0000    -0.8770 h4         1 A9R       0.056100
     24 H2           0.6300     0.0000     3.2170 h4         1 A9R       0.174000
     25 H3           5.2620    -2.8980     0.0170 h1         1 A9R       0.046700
     26 H4           3.9070    -4.0360     0.0370 h1         1 A9R       0.046700
     27 H5           4.7640    -3.6540     1.5370 h1         1 A9R       0.046700
     28 H6           2.5600     5.4090     3.9130 ha         1 A9R       0.137000
     29 H7           4.0690     6.7030     5.4110 ha         1 A9R       0.138000
     30 H8           6.2670     5.7730     6.0150 h4         1 A9R       0.025100
     31 H9          -2.0340     0.8870     2.3590 h1         1 A9R       0.056367
     32 H10         -2.0340    -0.8820     2.3630 h1         1 A9R       0.056367
     33 H11         -2.4920    -0.0010     0.8990 h1         1 A9R       0.056367
     34 H12          5.9420    -1.9390     1.7440 ha         1 A9R       0.167000
     35 H13          3.0090     1.9130     2.6930 h4         1 A9R       0.180000
     36 H14          7.7630     1.9540     4.2830 h4         1 A9R       0.200000
     37 H15          3.3250     3.2010     3.0670 ha         1 A9R       0.138000
     38 C1          -1.8420     0.0010     1.7660 c3         1 A9R       0.063600
@<TRIPOS>BOND
     1    38    12 1
     2    12     1 1
     3    12     3 1
     4     1     2 2
     5     3     4 2
     6     2     4 1
     7     9    10 ar
     8     9    21 ar
     9     4     5 1
    10    10    11 ar
    11    21    20 ar
    12     5    15 2
    13     5     6 1
    14    15    16 1
    15    11    22 ar
    16    20    22 ar
    17    20     8 1
    18    13     6 1
    19    13     7 1
    20     6    14 2
    21    16     8 1
    22    16    17 1
    23     8    19 2
    24    14    17 1
    25    17    18 2
    26    19    18 1
    27     2    23 1
    28     3    24 1
    29     7    25 1
    30     7    26 1
    31     7    27 1
    32     9    28 1
    33    10    29 1
    34    11    30 1
    35    38    31 1
    36    38    32 1
    37    38    33 1
    38    14    34 1
    39    15    35 1
    40    19    36 1
    41    21    37 1
@<TRIPOS>SUBSTRUCTURE
     1 A9R         1 TEMP              0 ****  ****    0 ROOT
