@<TRIPOS>MOLECULE
A9S
   38    38     1     0     0
SMALL
bcc


@<TRIPOS>ATOM
      1 O3          1.1900    0.0450    1.1940 o         1 A9S     -0.829300
      2 C10         0.9520   -0.6880    0.1940 c         1 A9S      0.896800
      3 O1          1.1890   -1.9290    0.1440 o         1 A9S     -0.829300
      4 C11         0.3120   -0.0250   -1.0080 ce        1 A9S     -0.152200
      5 C12         0.7960   -0.0610   -2.2590 cf        1 A9S     -0.183200
      6 C15         2.0640   -0.7560   -2.6080 c3        1 A9S     -0.048900
      7 C8          0.1980    0.6670   -3.3730 cf        1 A9S     -0.063000
      8 C9         -0.9640    0.4930   -4.0100 c2        1 A9S     -0.247200
      9 C5         -2.0660   -0.4990   -3.7790 c3        1 A9S      0.244200
     10 O4         -2.1270   -0.9880   -2.4410 oh        1 A9S     -0.599800
     11 C6         -3.4620    0.1670   -4.0140 c3        1 A9S     -0.029000
     12 C14        -3.5550    0.8300   -5.3810 c3        1 A9S     -0.088100
     13 C13        -3.7070    1.2100   -2.9340 c3        1 A9S     -0.088100
     14 C1         -4.5340   -0.9190   -3.9080 c3        1 A9S     -0.175400
     15 C4         -1.8900   -1.6980   -4.7060 c2        1 A9S     -0.043400
     16 C7         -0.4980   -2.1240   -4.9710 c3        1 A9S     -0.080900
     17 C3         -2.9400   -2.3690   -5.2100 ce        1 A9S     -0.270200
     18 C2         -4.3330   -2.0060   -4.9230 c         1 A9S      0.579300
     19 O2         -5.2880   -2.5800   -5.4670 o         1 A9S     -0.570100
     20 H2         -0.6150    0.5270   -0.7790 ha        1 A9S      0.113000
     21 H3          2.3390   -1.4800   -1.7980 hc        1 A9S      0.038033
     22 H4          1.9600   -1.3120   -3.5730 hc        1 A9S      0.038033
     23 H5          2.8910   -0.0120   -2.7250 hc        1 A9S      0.038033
     24 H6          0.8660    1.4680   -3.7530 ha        1 A9S      0.104000
     25 H7         -1.1710    1.1570   -4.8690 ha        1 A9S      0.110000
     26 H8         -1.2430   -1.3080   -2.2020 ho        1 A9S      0.441000
     27 H9         -3.1050    0.1770   -6.1670 hc        1 A9S      0.038533
     28 H10        -3.0330    1.8160   -5.3850 hc        1 A9S      0.038533
     29 H11        -4.6270    1.0110   -5.6400 hc        1 A9S      0.038533
     30 H12        -4.6960    1.7020   -3.0930 hc        1 A9S      0.038533
     31 H13        -2.9040    1.9850   -2.9650 hc        1 A9S      0.038533
     32 H14        -3.6930    0.7290   -1.9250 hc        1 A9S      0.038533
     33 H15        -4.4750   -1.3880   -2.8860 hc        1 A9S      0.077700
     34 H16        -5.5520   -0.4660   -4.0240 hc        1 A9S      0.077700
     35 H17         0.0380   -1.3380   -5.5620 hc        1 A9S      0.057367
     36 H18        -0.4610   -3.0860   -5.5370 hc        1 A9S      0.057367
     37 H19         0.0460   -2.2530   -3.9990 hc        1 A9S      0.057367
     38 H20        -2.8030   -3.2450   -5.8640 ha        1 A9S      0.137000
@<TRIPOS>BOND
     1    1    2 1   
     2    2    3 1   
     3    2    4 1   
     4    4    5 2   
     5    4   20 1   
     6    5    6 1   
     7    5    7 1   
     8    6   21 1   
     9    6   22 1   
    10    6   23 1   
    11    7    8 2   
    12    7   24 1   
    13    8    9 1   
    14    8   25 1   
    15    9   10 1   
    16    9   11 1   
    17    9   15 1   
    18   10   26 1   
    19   11   12 1   
    20   11   13 1   
    21   11   14 1   
    22   12   27 1   
    23   12   28 1   
    24   12   29 1   
    25   13   30 1   
    26   13   31 1   
    27   13   32 1   
    28   14   18 1   
    29   14   33 1   
    30   14   34 1   
    31   15   16 1   
    32   15   17 2   
    33   16   35 1   
    34   16   36 1   
    35   16   37 1   
    36   17   18 1   
    37   17   38 1   
    38   18   19 2   
@<TRIPOS>SUBSTRUCTURE
     1 A9S         1 TEMP              0 ****  ****    0 ROOT
