@<TRIPOS>MOLECULE
molecule
   38    38     1     0     0
SMALL
bcc


@<TRIPOS>ATOM
      1 O3           0.0000     0.0000     0.0000 o          1 A9S      -0.836800
      2 C10          1.2160     0.0000     0.0000 c          1 A9S       0.861800
      3 O1           1.8910     0.0000     1.1690 o          1 A9S      -0.836800
      4 C11          1.9260    -0.0070    -1.2280 ce         1 A9S      -0.137200
      5 C12          1.2570    -0.1510    -2.3940 cf         1 A9S      -0.153200
      6 C15          1.9740     0.0500    -3.7050 c3         1 A9S      -0.046900
      7 C8          -0.1640    -0.5010    -2.3850 cf         1 A9S      -0.031000
      8 C9          -0.8530    -0.5240    -3.5280 c2         1 A9S      -0.311200
      9 C5          -2.3160    -0.8860    -3.5180 c3         1 A9S       0.249200
     10 O4          -2.7180    -1.1760    -2.1770 oh         1 A9S      -0.571800
     11 C6          -3.1290     0.3000    -4.0370 c3         1 A9S      -0.050000
     12 C14         -2.5800     0.7410    -5.3950 c3         1 A9S      -0.080600
     13 C13         -3.0320     1.4610    -3.0440 c3         1 A9S      -0.080600
     14 C1          -4.5960    -0.1260    -4.1870 c3         1 A9S      -0.171400
     15 C4          -2.5280    -2.1020    -4.3690 c2         1 A9S      -0.072400
     16 C7          -1.4810    -3.1860    -4.3450 c3         1 A9S      -0.063900
     17 C3          -3.5930    -2.2710    -5.1430 ce         1 A9S      -0.273200
     18 C2          -4.6380    -1.2420    -5.2110 c          1 A9S       0.574300
     19 O2          -5.5050    -1.2860    -6.0580 o          1 A9S      -0.555100
     20 H2           2.9770     0.2520    -1.2400 ha         1 A9S       0.107000
     21 H3           1.8290    -0.8200    -4.3340 hc         1 A9S       0.023700
     22 H4           3.0320     0.1900    -3.5200 hc         1 A9S       0.023700
     23 H5           1.5760     0.9260    -4.2040 hc         1 A9S       0.023700
     24 H6          -0.6560    -0.7430    -1.4510 ha         1 A9S       0.224000
     25 H7          -0.3610    -0.2830    -4.4620 ha         1 A9S       0.112000
     26 H8          -2.8860    -2.1000    -2.0920 ho         1 A9S       0.397000
     27 H9          -2.2880    -0.1310    -5.9670 hc         1 A9S       0.040533
     28 H10         -3.3450     1.2870    -5.9340 hc         1 A9S       0.040533
     29 H11         -1.7180     1.3810    -5.2460 hc         1 A9S       0.040533
     30 H12         -2.0100     1.8180    -3.0040 hc         1 A9S       0.040533
     31 H13         -3.3350     1.1210    -2.0610 hc         1 A9S       0.040533
     32 H14         -3.6830     2.2650    -3.3640 hc         1 A9S       0.040533
     33 H15         -4.9730    -0.4840    -3.2370 hc         1 A9S       0.071200
     34 H16         -5.1880     0.7120    -4.5340 hc         1 A9S       0.071200
     35 H17         -1.9420    -4.1380    -4.5780 hc         1 A9S       0.050700
     36 H18         -0.7170    -2.9650    -5.0800 hc         1 A9S       0.050700
     37 H19         -1.0330    -3.2330    -3.3600 hc         1 A9S       0.050700
     38 H20         -3.6930    -3.1760    -5.7300 ha         1 A9S       0.138000
@<TRIPOS>BOND
     1     1     2 1
     2     2     3 1
     3     2     4 1
     4     4     5 2
     5     5     6 1
     6     5     7 1
     7     7     8 2
     8    10     9 1
     9    16    15 1
    10     8     9 1
    11     9    15 1
    12     9    11 1
    13    15    17 2
    14    12    11 1
    15    11    13 1
    16    11    14 1
    17    17    18 1
    18    14    18 1
    19    18    19 2
    20     4    20 1
    21     6    21 1
    22     6    22 1
    23     6    23 1
    24     7    24 1
    25     8    25 1
    26    10    26 1
    27    12    27 1
    28    12    28 1
    29    12    29 1
    30    13    30 1
    31    13    31 1
    32    13    32 1
    33    14    33 1
    34    14    34 1
    35    16    35 1
    36    16    36 1
    37    16    37 1
    38    17    38 1
@<TRIPOS>SUBSTRUCTURE
     1 A9S         1 TEMP              0 ****  ****    0 ROOT
