@<TRIPOS>MOLECULE
A9T
   62    66     1     0     0
SMALL
bcc


@<TRIPOS>ATOM
      1 C1           0.0000     0.0000     0.0000 c          1 A9T       0.359700
      2 N1           1.3480     0.0000     0.0000 nz         1 A9T       0.200600
      3 O1          -9.1580    -0.0060     6.8600 os         1 A9T      -0.341900
      4 C2          -0.7370     0.0000     1.2790 ca         1 A9T      -0.268600
      5 C3          -2.1280    -0.0000     1.2780 ca         1 A9T       0.114000
      6 N3          -4.1350    -0.0020     2.8140 nc         1 A9T      -0.497100
      7 C4          -2.8180    -0.0010     2.4910 ca         1 A9T       0.052400
      8 N4          -3.0330    -0.0030     4.7090 na         1 A9T       0.296700
      9 C5          -4.2680    -0.0040     4.1170 cd         1 A9T       0.337400
     10 C6          -2.0930    -0.0020     3.6990 ca         1 A9T      -0.249200
     11 C7          -0.7040    -0.0010     3.6800 ca         1 A9T      -0.032000
     12 C8          -0.0340    -0.0070     2.4910 ca         1 A9T      -0.119000
     13 C9          -5.5570    -0.0030     4.8400 ca         1 A9T      -0.205900
     14 C10         -6.7580    -0.0040     4.1290 ca         1 A9T      -0.016500
     15 C11         -7.9580    -0.0040     4.8070 ca         1 A9T      -0.187500
     16 C12         -7.9730    -0.0050     6.1960 ca         1 A9T       0.190100
     17 C13         -6.7800    -0.0060     6.9070 ca         1 A9T      -0.187500
     18 C14         -5.5760    -0.0110     6.2370 ca         1 A9T      -0.016500
     19 C20        -10.3780     0.4640    12.3750 c3         1 A9T       0.156800
     20 C19         -9.0420     0.4890    11.6300 c3         1 A9T      -0.079400
     21 C18         -9.2940     0.3010    10.1310 c3         1 A9T      -0.197700
     22 C17        -10.0380    -1.0180     9.9100 c3         1 A9T      -0.079400
     23 C16        -11.3470    -1.0000    10.7040 c3         1 A9T       0.156800
     24 NBG        -11.0520    -0.8180    12.1310 n3         1 A9T      -0.520600
     25 CAS         -9.1010    -0.0080     8.2880 c3         1 A9T       0.216400
     26 OAB         -0.6080     0.0060    -1.0520 o          1 A9T      -0.447100
     27 C22        -11.0770    -3.2000    12.6080 ca         1 A9T      -0.096300
     28 C23        -11.0490    -4.0040    11.4830 ca         1 A9T      -0.084000
     29 C24        -11.8020    -5.1630    11.4430 ca         1 A9T      -0.096000
     30 C25        -12.5850    -5.5170    12.5280 ca         1 A9T      -0.032600
     31 C26        -12.6140    -4.7110    13.6520 ca         1 A9T      -0.096000
     32 Cl1        -13.5310    -6.9710    12.4770 cl         1 A9T      -0.017400
     33 C21        -10.2570    -1.9370    12.6510 c3         1 A9T       0.192100
     34 C27        -11.8640    -3.5500    13.6900 ca         1 A9T      -0.084000
     35 H23        -10.3920    -3.7580    10.6580 ha         1 A9T       0.109000
     36 H24        -11.7550    -5.8100    10.5750 ha         1 A9T       0.116500
     37 H26        -13.2030    -5.0030    14.5130 ha         1 A9T       0.116500
     38 H21         -9.9670    -1.7290    13.6740 h1         1 A9T       0.023200
     39 H22         -9.3680    -2.0620    12.0440 h1         1 A9T       0.023200
     40 H27        -11.8740    -2.9280    14.5760 ha         1 A9T       0.109000
     41 H11N         1.6820     0.0040    -0.9440 hn         1 A9T       0.244800
     42 H12N         1.6820     0.8150     0.4750 hn         1 A9T       0.244800
     43 HAS1        -8.5760    -0.8930     8.6270 h1         1 A9T       0.052200
     44 HAS2        -8.5760     0.8760     8.6290 h1         1 A9T       0.052200
     45 H3          -2.6690    -0.1200     0.3470 ha         1 A9T       0.137000
     46 H8           1.0500    -0.0160     2.4850 ha         1 A9T       0.080000
     47 H4          -2.8460    -0.0040     5.6930 hn         1 A9T       0.145700
     48 H7          -0.1510    -0.0070     4.6120 ha         1 A9T       0.118000
     49 H10         -6.7470    -0.0030     3.0460 ha         1 A9T       0.107000
     50 H14         -4.6460    -0.0120     6.7930 ha         1 A9T       0.107000
     51 H11         -8.8900    -0.0050     4.2550 ha         1 A9T       0.125500
     52 H13         -6.7960    -0.0120     7.9900 ha         1 A9T       0.125500
     53 H161       -11.8670    -1.9400    10.5610 h1         1 A9T       0.038200
     54 H162       -11.9660    -0.1820    10.3570 h1         1 A9T       0.038200
     55 H171       -10.2580    -1.1350     8.8550 hc         1 A9T       0.043200
     56 H172        -9.4220    -1.8420    10.2490 hc         1 A9T       0.043200
     57 H18         -9.9790     1.0370    10.5350 hc         1 A9T       0.070700
     58 H191        -8.5540     1.4420    11.7960 hc         1 A9T       0.043200
     59 H192        -8.4120    -0.3140    11.9930 hc         1 A9T       0.043200
     60 H201       -10.2000     0.5810    13.4370 h1         1 A9T       0.038200
     61 H202       -11.0040     1.2730    12.0170 h1         1 A9T       0.038200
     62 H131         1.6820    -0.8050     0.4930 hn         1 A9T       0.244800
@<TRIPOS>BOND
     1     1     2 1   
     2     1     4 1   
     3     1    26 2   
     4     2    41 1   
     5     2    42 1   
     6     2    62 1   
     7     3    16 1   
     8     3    25 1   
     9     4     5 ar  
    10     4    12 ar  
    11     5     7 ar  
    12     5    45 1   
    13     6     7 1   
    14     6     9 2   
    15     7    10 ar  
    16     8     9 1   
    17     8    10 1   
    18     8    47 1   
    19     9    13 1   
    20    10    11 ar  
    21    11    12 ar  
    22    11    48 1   
    23    12    46 1   
    24    13    14 ar  
    25    13    18 ar  
    26    14    15 ar  
    27    14    49 1   
    28    15    16 ar  
    29    15    51 1   
    30    16    17 ar  
    31    17    18 ar  
    32    17    52 1   
    33    18    50 1   
    34    19    20 1   
    35    19    24 1   
    36    19    60 1   
    37    19    61 1   
    38    20    21 1   
    39    20    58 1   
    40    20    59 1   
    41    21    22 1   
    42    21    25 1   
    43    21    57 1   
    44    22    23 1   
    45    22    55 1   
    46    22    56 1   
    47    23    24 1   
    48    23    53 1   
    49    23    54 1   
    50    24    33 1   
    51    25    43 1   
    52    25    44 1   
    53    27    28 ar  
    54    27    33 1   
    55    27    34 ar  
    56    28    29 ar  
    57    28    35 1   
    58    29    30 ar  
    59    29    36 1   
    60    30    31 ar  
    61    30    32 1   
    62    31    34 ar  
    63    31    37 1   
    64    33    38 1   
    65    33    39 1   
    66    34    40 1   
@<TRIPOS>SUBSTRUCTURE
     1 A9T         1 TEMP              0 ****  ****    0 ROOT
