@<TRIPOS>MOLECULE
A9U
   62    66     1     0     0
SMALL
bcc


@<TRIPOS>ATOM
      1 C1           0.0000     0.0000     0.0000 c          1 A9U       0.357700
      2 N1           1.3470     0.0000     0.0000 nz         1 A9U       0.207600
      3 O1          -8.9730    -0.0040     7.1690 os         1 A9U      -0.256900
      4 C2          -0.7390     0.0000     1.2770 ca         1 A9U      -0.226600
      5 C3          -2.1340     0.0000     1.2740 ca         1 A9U       0.086000
      6 N3          -4.1600    -0.0010     2.8140 na         1 A9U       0.293700
      7 C4          -2.8190    -0.0000     2.4760 ca         1 A9U      -0.331200
      8 N4          -3.0180    -0.0030     4.6860 nc         1 A9U      -0.520100
      9 C5          -4.2290    -0.0010     4.1800 cd         1 A9U       0.361400
     10 C6          -2.1090    -0.0020     3.6920 ca         1 A9U       0.132400
     11 C7          -0.7060    -0.0030     3.6760 ca         1 A9U      -0.022000
     12 C8          -0.0380    -0.0070     2.4900 ca         1 A9U      -0.169000
     13 C9          -5.4790    -0.0010     4.9680 ca         1 A9U      -0.206900
     14 C10         -5.4280    -0.0030     6.3640 ca         1 A9U      -0.015500
     15 C11         -6.5950    -0.0030     7.0940 ca         1 A9U      -0.177000
     16 C12         -7.8240    -0.0020     6.4440 ca         1 A9U       0.203100
     17 C13         -7.8800    -0.0020     5.0560 ca         1 A9U      -0.177000
     18 C14         -6.7160     0.0060     4.3190 ca         1 A9U      -0.015500
     19 C20        -14.5060    -0.2260     6.3030 c3         1 A9U       0.145300
     20 C19        -13.2460    -0.2720     5.4360 c3         1 A9U      -0.064400
     21 C18        -12.0110    -0.1360     6.3330 c3         1 A9U      -0.064700
     22 C17        -12.1070     1.1720     7.1240 c3         1 A9U      -0.064400
     23 C16        -13.4010     1.1750     7.9410 c3         1 A9U       0.145300
     24 NBH        -14.5520     1.0440     7.0380 n3         1 A9U      -0.527600
     25 CAS        -10.2000    -0.0030     6.4380 c3         1 A9U       0.194400
     26 OAB         -0.6080     0.0060    -1.0540 o          1 A9U      -0.462100
     27 C22        -14.9210     3.4410     6.8940 ca         1 A9U      -0.093300
     28 C23        -13.8790     4.2070     7.3840 ca         1 A9U      -0.094000
     29 C24        -14.1460     5.3590     8.0980 ca         1 A9U      -0.098500
     30 C25        -15.4530     5.7480     8.3210 ca         1 A9U      -0.097000
     31 C26        -16.4950     4.9840     7.8310 ca         1 A9U      -0.098500
     32 C21        -14.6300     2.1840     6.1160 c3         1 A9U       0.195100
     33 C27        -16.2280     3.8250     7.1220 ca         1 A9U      -0.094000
     34 H25        -15.6610     6.6510     8.8820 ha         1 A9U       0.104000
     35 H23        -12.8550     3.9390     7.1510 ha         1 A9U       0.105500
     36 H24        -13.3290     5.9640     8.4740 ha         1 A9U       0.103500
     37 H26        -17.5180     5.3120     7.9660 ha         1 A9U       0.103500
     38 H21        -15.4210     2.0130     5.3960 h1         1 A9U       0.018200
     39 H22        -13.6860     2.2920     5.5950 h1         1 A9U       0.018200
     40 H27        -17.0440     3.2330     6.7260 ha         1 A9U       0.105500
     41 H11N         1.6810     0.0040    -0.9440 hn         1 A9U       0.243467
     42 H12N         1.6810     0.8150     0.4750 hn         1 A9U       0.243467
     43 HAS1       -10.2490     0.8820     5.8150 h1         1 A9U      -0.009300
     44 HAS2       -10.2490    -0.8870     5.8130 h1         1 A9U      -0.009300
     45 H3          -2.7500    -0.0060     0.3830 ha         1 A9U       0.125000
     46 H8           1.0070    -0.0240     2.7760 ha         1 A9U       0.119000
     47 HA          -4.9330     0.0000     2.1790 hn         1 A9U       0.145700
     48 H7          -0.1830    -0.0030     4.6240 ha         1 A9U       0.132000
     49 H10         -4.4710    -0.0030     6.8710 ha         1 A9U       0.109000
     50 H14         -6.7600     0.0060     3.2360 ha         1 A9U       0.109000
     51 H11         -6.5560    -0.0040     8.1760 ha         1 A9U       0.133500
     52 H13         -8.8390     0.0040     4.5530 ha         1 A9U       0.133500
     53 H161       -13.3910     0.3430     8.6340 h1         1 A9U       0.034450
     54 H162       -13.4780     2.1070     8.4890 h1         1 A9U       0.034450
     55 H171       -12.1120     2.0090     6.4370 hc         1 A9U       0.026450
     56 H172       -11.2590     1.2510     7.7930 hc         1 A9U       0.026450
     57 H18        -12.5150    -0.9250     6.8790 hc         1 A9U       0.028700
     58 H191       -13.2670     0.5450     4.7260 hc         1 A9U       0.026450
     59 H192       -13.2050    -1.2170     4.9080 hc         1 A9U       0.026450
     60 H201       -15.3810    -0.3070     5.6690 h1         1 A9U       0.034450
     61 H202       -14.4880    -1.0490     7.0070 h1         1 A9U       0.034450
     62 H131         1.6810    -0.8420     0.4260 hn         1 A9U       0.243467
@<TRIPOS>BOND
     1     1     2 1   
     2     1     4 1   
     3     1    26 2   
     4     2    41 1   
     5     2    42 1   
     6     2    62 1   
     7     3    16 1   
     8     3    25 1   
     9     4     5 ar  
    10     4    12 ar  
    11     5     7 ar  
    12     5    45 1   
    13     6     7 1   
    14     6     9 1   
    15     6    47 1   
    16     7    10 ar  
    17     8     9 2   
    18     8    10 1   
    19     9    13 1   
    20    10    11 ar  
    21    11    12 ar  
    22    11    48 1   
    23    12    46 1   
    24    13    14 ar  
    25    13    18 ar  
    26    14    15 ar  
    27    14    49 1   
    28    15    16 ar  
    29    15    51 1   
    30    16    17 ar  
    31    17    18 ar  
    32    17    52 1   
    33    18    50 1   
    34    19    20 1   
    35    19    24 1   
    36    19    60 1   
    37    19    61 1   
    38    20    21 1   
    39    20    58 1   
    40    20    59 1   
    41    21    22 1   
    42    21    25 1   
    43    21    57 1   
    44    22    23 1   
    45    22    55 1   
    46    22    56 1   
    47    23    24 1   
    48    23    53 1   
    49    23    54 1   
    50    24    32 1   
    51    25    43 1   
    52    25    44 1   
    53    27    28 ar  
    54    27    32 1   
    55    27    33 ar  
    56    28    29 ar  
    57    28    35 1   
    58    29    30 ar  
    59    29    36 1   
    60    30    31 ar  
    61    30    34 1   
    62    31    33 ar  
    63    31    37 1   
    64    32    38 1   
    65    32    39 1   
    66    33    40 1   
@<TRIPOS>SUBSTRUCTURE
     1 A9U         1 TEMP              0 ****  ****    0 ROOT
