@<TRIPOS>MOLECULE
molecule
   43    44     1     0     0
SMALL
bcc


@<TRIPOS>ATOM
      1 O1           0.0000     0.0000     0.0000 oh         1 A9V      -0.602800
      2 C2           1.4290     0.0000     0.0000 c3         1 A9V       0.195400
      3 C1           1.9390     0.0000     1.4420 c3         1 A9V      -0.079400
      4 C            1.5340    -1.3080     2.1260 c3         1 A9V       0.139400
      5 O            2.0110    -1.3090     3.4730 oh         1 A9V      -0.610800
      6 C3           1.9310     1.2320    -0.7090 ca         1 A9V      -0.079300
      7 C15          3.0230     1.1460    -1.5530 ca         1 A9V      -0.155000
      8 C7           3.4830     2.2800    -2.2060 ca         1 A9V       0.142100
      9 C6           2.8470     3.4970    -2.0100 ca         1 A9V      -0.217000
     10 C5           1.7560     3.5770    -1.1660 ca         1 A9V      -0.094000
     11 C4           1.2950     2.4450    -0.5210 ca         1 A9V      -0.137000
     12 O2           4.5570     2.1980    -3.0360 os         1 A9V      -0.331900
     13 C8           4.9760     3.4050    -3.6740 c3         1 A9V       0.141400
     14 C9           6.1890     3.1180    -4.5610 c3         1 A9V      -0.068700
     15 C14          6.5610     4.3810    -5.3410 c3         1 A9V      -0.074400
     16 C13          7.7740     4.0930    -6.2280 c3         1 A9V      -0.078400
     17 C12          8.9550     3.6660    -5.3550 c3         1 A9V      -0.081400
     18 C11          8.5830     2.4040    -4.5760 c3         1 A9V      -0.078400
     19 C10          7.3700     2.6900    -3.6880 c3         1 A9V      -0.074400
     20 H1          -0.3140    -0.6290    -0.6280 ho         1 A9V       0.404000
     21 H2           1.7900    -0.8840    -0.5110 h1         1 A9V       0.036700
     22 H3           3.0180     0.0890     1.4440 hc         1 A9V       0.068700
     23 H4           1.5070     0.8360     1.9780 hc         1 A9V       0.068700
     24 H5           1.9660    -2.1440     1.5900 h1         1 A9V       0.021700
     25 H6           0.4550    -1.3970     2.1250 h1         1 A9V       0.021700
     26 H7           1.7590    -2.1130     3.8950 ho         1 A9V       0.402000
     27 H8           3.5180     0.1940    -1.7040 ha         1 A9V       0.140000
     28 H9           3.2060     4.3840    -2.5170 ha         1 A9V       0.134000
     29 H10          1.2580     4.5270    -1.0150 ha         1 A9V       0.131000
     30 H11          0.4390     2.5100     0.1410 ha         1 A9V       0.146000
     31 H12          4.1670     3.7920    -4.2820 h1         1 A9V       0.035700
     32 H13          5.2440     4.1370    -2.9220 h1         1 A9V       0.035700
     33 H14          5.9510     2.3240    -5.2580 hc         1 A9V       0.064700
     34 H15          6.8040     5.1750    -4.6450 hc         1 A9V       0.045700
     35 H16          5.7250     4.6800    -5.9610 hc         1 A9V       0.045700
     36 H17          7.5320     3.2970    -6.9210 hc         1 A9V       0.042450
     37 H18          8.0380     4.9890    -6.7770 hc         1 A9V       0.042450
     38 H19          9.8120     3.4610    -5.9850 hc         1 A9V       0.041200
     39 H20          9.1940     4.4610    -4.6590 hc         1 A9V       0.041200
     40 H21          9.4190     2.1040    -3.9560 hc         1 A9V       0.042450
     41 H22          8.3400     1.6100    -5.2720 hc         1 A9V       0.042450
     42 H23          7.1060     1.7940    -3.1400 hc         1 A9V       0.045700
     43 H24          7.6120     3.4870    -2.9950 hc         1 A9V       0.045700
@<TRIPOS>BOND
     1    17    18 1
     2    17    16 1
     3    18    19 1
     4    19    14 1
     5    16    15 1
     6    15    14 1
     7    14    13 1
     8    13    12 1
     9     4     3 1
    10     4     5 1
    11     3     2 1
    12     7     8 ar
    13     7     6 ar
    14    12     8 1
    15     2     6 1
    16     2     1 1
    17     8     9 ar
    18     6    11 ar
    19     9    10 ar
    20    11    10 ar
    21     1    20 1
    22     2    21 1
    23     3    22 1
    24     3    23 1
    25     4    24 1
    26     4    25 1
    27     5    26 1
    28     7    27 1
    29     9    28 1
    30    10    29 1
    31    11    30 1
    32    13    31 1
    33    13    32 1
    34    14    33 1
    35    15    34 1
    36    15    35 1
    37    16    36 1
    38    16    37 1
    39    17    38 1
    40    17    39 1
    41    18    40 1
    42    18    41 1
    43    19    42 1
    44    19    43 1
@<TRIPOS>SUBSTRUCTURE
     1 A9V         1 TEMP              0 ****  ****    0 ROOT
