@<TRIPOS>MOLECULE
A9V
   43    44     1     0     0
SMALL
bcc


@<TRIPOS>ATOM
      1 O1         -0.0160    0.0380    0.1990 oh        1 A9V     -0.600800
      2 C2          1.3880    0.0460   -0.0400 c3        1 A9V      0.187400
      3 C1          2.0680   -0.1030    1.3190 c3        1 A9V     -0.075400
      4 C           1.7440   -1.4540    1.9310 c3        1 A9V      0.132400
      5 O           2.4370   -1.5270    3.1670 oh        1 A9V     -0.603800
      6 C3          1.8370    1.3060   -0.7240 ca        1 A9V     -0.098300
      7 C15         2.9460    1.2710   -1.5660 ca        1 A9V     -0.149000
      8 C7          3.3690    2.4550   -2.2000 ca        1 A9V      0.129100
      9 C6          2.6860    3.6590   -1.9960 ca        1 A9V     -0.201000
     10 C5          1.5780    3.6740   -1.1480 ca        1 A9V     -0.095000
     11 C4          1.1520    2.5100   -0.5140 ca        1 A9V     -0.154000
     12 O2          4.4730    2.3040   -3.0150 os        1 A9V     -0.330900
     13 C8          4.9590    3.5010   -3.6380 c3        1 A9V      0.130400
     14 C9          6.1890    3.0910   -4.4410 c3        1 A9V     -0.067700
     15 C14         6.5320    4.1890   -5.4380 c3        1 A9V     -0.073400
     16 C13         7.7730    3.8330   -6.2300 c3        1 A9V     -0.075400
     17 C12         8.9470    3.5380   -5.3190 c3        1 A9V     -0.078400
     18 C11         8.6070    2.4550   -4.3160 c3        1 A9V     -0.075400
     19 C10         7.3680    2.8130   -3.5210 c3        1 A9V     -0.073400
     20 H1         -0.4440    0.2700   -0.6330 ho        1 A9V      0.406000
     21 H2          1.6420   -0.8420   -0.6920 h1        1 A9V      0.040700
     22 H3          3.1760    0.0010    1.1870 hc        1 A9V      0.068200
     23 H4          1.7210    0.7100    2.0070 hc        1 A9V      0.068200
     24 H5          2.0860   -2.2870    1.2590 h1        1 A9V      0.028200
     25 H6          0.6360   -1.5480    2.0930 h1        1 A9V      0.028200
     26 H7          2.1330   -2.3300    3.6040 ho        1 A9V      0.399000
     27 H8          3.4990    0.3370   -1.7430 ha        1 A9V      0.150000
     28 H9          3.0080    4.5870   -2.4870 ha        1 A9V      0.138000
     29 H10         1.0380    4.6180   -0.9800 ha        1 A9V      0.134000
     30 H11         0.2820    2.5260    0.1600 ha        1 A9V      0.146000
     31 H12         4.1630    3.9140   -4.3120 h1        1 A9V      0.040200
     32 H13         5.2210    4.2550   -2.8510 h1        1 A9V      0.040200
     33 H14         5.9460    2.1470   -5.0060 hc        1 A9V      0.068700
     34 H15         5.6710    4.3430   -6.1390 hc        1 A9V      0.043450
     35 H16         6.6990    5.1520   -4.8890 hc        1 A9V      0.043450
     36 H17         7.5620    2.9350   -6.8690 hc        1 A9V      0.041450
     37 H18         8.0330    4.6810   -6.9160 hc        1 A9V      0.041450
     38 H19         9.2410    4.4740   -4.7740 hc        1 A9V      0.039700
     39 H20         9.8280    3.2170   -5.9350 hc        1 A9V      0.039700
     40 H21         9.4690    2.3070   -3.6160 hc        1 A9V      0.041450
     41 H22         8.4380    1.4860   -4.8540 hc        1 A9V      0.041450
     42 H23         7.1000    1.9730   -2.8290 hc        1 A9V      0.043450
     43 H24         7.5740    3.7190   -2.8920 hc        1 A9V      0.043450
@<TRIPOS>BOND
     1    1    2 1   
     2    1   20 1   
     3    2    3 1   
     4    2    6 1   
     5    2   21 1   
     6    3    4 1   
     7    3   22 1   
     8    3   23 1   
     9    4    5 1   
    10    4   24 1   
    11    4   25 1   
    12    5   26 1   
    13    6    7 ar  
    14    6   11 ar  
    15    7    8 ar  
    16    7   27 1   
    17    8    9 ar  
    18    8   12 1   
    19    9   10 ar  
    20    9   28 1   
    21   10   11 ar  
    22   10   29 1   
    23   11   30 1   
    24   12   13 1   
    25   13   14 1   
    26   13   31 1   
    27   13   32 1   
    28   14   15 1   
    29   14   19 1   
    30   14   33 1   
    31   15   16 1   
    32   15   34 1   
    33   15   35 1   
    34   16   17 1   
    35   16   36 1   
    36   16   37 1   
    37   17   18 1   
    38   17   38 1   
    39   17   39 1   
    40   18   19 1   
    41   18   40 1   
    42   18   41 1   
    43   19   42 1   
    44   19   43 1   
@<TRIPOS>SUBSTRUCTURE
     1 A9V         1 TEMP              0 ****  ****    0 ROOT
