@<TRIPOS>MOLECULE
molecule
   32    33     1     0     0
SMALL
bcc


@<TRIPOS>ATOM
      1 C            0.0000     0.0000     0.0000 c3         1 A9W      -0.048800
      2 N            7.8050     0.5820    -5.9770 nz         1 A9W      -0.810600
      3 O            5.6400    -0.0010     0.0230 oh         1 A9W      -0.515100
      4 C1           1.5070     0.0000     0.0000 ca         1 A9W      -0.094300
      5 C2           2.1970     0.0000     1.2000 ca         1 A9W      -0.077000
      6 C3           3.5790    -0.0000     1.2090 ca         1 A9W      -0.178000
      7 C4           4.2810    -0.0000     0.0150 ca         1 A9W       0.139100
      8 C5           3.5870    -0.0020    -1.1990 cp         1 A9W      -0.107000
      9 C6           2.1940    -0.0060    -1.1970 ca         1 A9W      -0.081000
     10 C7           4.3300    -0.0020    -2.4820 cp         1 A9W       0.051000
     11 C8           4.2410     1.0890    -3.3430 ca         1 A9W      -0.103000
     12 C9           4.9350     1.0830    -4.5360 ca         1 A9W      -0.104000
     13 C10          5.7190    -0.0030    -4.8790 ca         1 A9W      -0.199300
     14 C11          6.4740    -0.0030    -6.1830 c3         1 A9W       0.162100
     15 C12          5.8130    -1.0900    -4.0280 ca         1 A9W      -0.102000
     16 C13          5.1270    -1.0940    -2.8300 ca         1 A9W       0.050400
     17 Cl           5.2450    -2.4580    -1.7630 cl         1 A9W      -0.036400
     18 H1          -0.3610    -0.2440     0.9920 hc         1 A9W       0.051367
     19 H2          -0.3610     0.9810    -0.2840 hc         1 A9W       0.051367
     20 H3          -0.3610    -0.7370    -0.7070 hc         1 A9W       0.051367
     21 H4           7.7170     1.5680    -5.8300 hn         1 A9W       0.454467
     22 H5           8.2340     0.1610    -5.1770 hn         1 A9W       0.454467
     23 H7           5.9510     0.6860     0.5900 ho         1 A9W       0.428000
     24 H8           1.6510     0.0000     2.1360 ha         1 A9W       0.148000
     25 H9           4.1140    -0.0000     2.1520 ha         1 A9W       0.149000
     26 H10          1.6510    -0.0070    -2.1340 ha         1 A9W       0.141000
     27 H11          3.6280     1.9410    -3.0770 ha         1 A9W       0.166000
     28 H12          4.8660     1.9320    -5.2060 ha         1 A9W       0.136000
     29 H13          6.5770    -1.0200    -6.5400 hx         1 A9W       0.112200
     30 H14          5.9310     0.5830    -6.9140 hx         1 A9W       0.112200
     31 H15          6.4300    -1.9370    -4.3000 ha         1 A9W       0.146000
     32 H6           8.3710     0.4150    -6.7860 hn         1 A9W       0.454467
@<TRIPOS>BOND
     1     3     7 1
     2     2    14 1
     3    17    16 1
     4    15    16 ar
     5    15    13 ar
     6     7     6 ar
     7     7     8 ar
     8    14    13 1
     9    16    10 ar
    10    13    12 ar
    11     6     5 ar
    12    10     8 1
    13    10    11 ar
    14    12    11 ar
    15     8     9 ar
    16     5     4 ar
    17     9     4 ar
    18     4     1 1
    19     1    18 1
    20     1    19 1
    21     1    20 1
    22     2    21 1
    23     2    22 1
    24     3    23 1
    25     5    24 1
    26     6    25 1
    27     9    26 1
    28    11    27 1
    29    12    28 1
    30    14    29 1
    31    14    30 1
    32    15    31 1
    33     2    32 1
@<TRIPOS>SUBSTRUCTURE
     1 A9W         1 TEMP              0 ****  ****    0 ROOT
