@<TRIPOS>MOLECULE
molecule
   40    44     1     0     0
SMALL
bcc


@<TRIPOS>ATOM
      1 CAH          0.0000     0.0000     0.0000 ca         1 A9Y      -0.045000
      2 CAD          1.3790     0.0000     0.0000 ca         1 A9Y      -0.137000
      3 CAE          2.0780     0.0000     1.1940 ca         1 A9Y      -0.097000
      4 CAI          1.3960    -0.0020     2.4010 ca         1 A9Y      -0.105000
      5 CAT          0.0220    -0.0030     2.4120 ca         1 A9Y      -0.098300
      6 CAR         -0.6940    -0.0010     1.2110 ca         1 A9Y      -0.187600
      7 CAP         -2.1310    -0.0020     1.5370 c          1 A9Y       0.748200
      8 OAB         -3.0300    -0.0020     0.7190 o          1 A9Y      -0.568500
      9 OAO         -2.3060    -0.0040     2.8690 os         1 A9Y      -0.380900
     10 CAY         -1.0040    -0.0030     3.5170 c3         1 A9Y       0.282700
     11 CAV         -0.8500    -1.2390     4.3660 cc         1 A9Y      -0.338600
     12 CAS         -1.2240    -2.4990     4.0190 cd         1 A9Y       0.202800
     13 OAC         -1.8040    -2.8710     2.8490 oh         1 A9Y      -0.459100
     14 CAQ         -0.2890    -1.2940     5.6470 cc         1 A9Y       0.388600
     15 CAA          0.2630    -0.1230     6.4170 c3         1 A9Y      -0.118400
     16 NAM         -0.3270    -2.5340     6.0620 nd         1 A9Y      -0.512800
     17 NAZ         -0.9110    -3.3200     5.0600 na         1 A9Y       0.047300
     18 CAU         -1.1280    -4.6910     5.1160 cd         1 A9Y       0.541300
     19 NAL         -0.8050    -5.4930     6.1720 na         1 A9Y      -0.256300
     20 CAW         -1.1790    -6.7820     5.8380 ca         1 A9Y      -0.086200
     21 CAJ         -1.1080    -8.0030     6.4900 ca         1 A9Y      -0.125000
     22 CAF         -1.5820    -9.1400     5.8700 ca         1 A9Y      -0.112000
     23 CAG         -2.1300    -9.0720     4.5970 ca         1 A9Y      -0.140000
     24 CAK         -2.2070    -7.8670     3.9350 ca         1 A9Y      -0.072000
     25 CAX         -1.7330    -6.7050     4.5490 ca         1 A9Y       0.109400
     26 NAN         -1.6770    -5.4030     4.1680 nc         1 A9Y      -0.621100
     27 H1          -0.5430     0.0000    -0.9370 ha         1 A9Y       0.150000
     28 H2           1.9180     0.0010    -0.9400 ha         1 A9Y       0.139000
     29 H3           3.1610     0.0000     1.1860 ha         1 A9Y       0.137000
     30 H4           1.9460    -0.0020     3.3340 ha         1 A9Y       0.135000
     31 H5          -0.8940     0.8870     4.1250 h1         1 A9Y       0.089700
     32 H7           0.5050    -0.4370     7.4260 hc         1 A9Y       0.057700
     33 H8           1.1580     0.2410     5.9280 hc         1 A9Y       0.057700
     34 H9          -0.4770     0.6670     6.4520 hc         1 A9Y       0.057700
     35 H10         -0.2600    -5.2260     6.9690 hn         1 A9Y       0.319700
     36 H11         -0.6820    -8.0650     7.4840 ha         1 A9Y       0.130000
     37 H12         -1.5270   -10.0940     6.3800 ha         1 A9Y       0.135000
     38 H13         -2.4980    -9.9720     4.1200 ha         1 A9Y       0.137000
     39 H14         -2.6360    -7.8200     2.9410 ha         1 A9Y       0.146000
     40 H6          -2.7190    -3.0480     2.9940 ho         1 A9Y       0.451000
@<TRIPOS>BOND
     1     8     7 2
     2    23    22 ar
     3    23    24 ar
     4    22    21 ar
     5    24    25 ar
     6     7     6 1
     7     7     9 1
     8     1     6 ar
     9     1     2 ar
    10    21    20 ar
    11    25    20 ar
    12    25    26 1
    13     6     5 ar
    14    20    19 1
    15    26    18 2
    16    13    12 1
    17     2     3 ar
    18     9    10 1
    19    19    18 1
    20    18    17 1
    21    12    17 1
    22    12    11 2
    23    17    16 1
    24     5    10 1
    25     5     4 ar
    26    11    10 1
    27    11    14 1
    28     3     4 ar
    29    16    14 2
    30    14    15 1
    31     1    27 1
    32     2    28 1
    33     3    29 1
    34     4    30 1
    35    10    31 1
    36    15    32 1
    37    15    33 1
    38    15    34 1
    39    19    35 1
    40    21    36 1
    41    22    37 1
    42    23    38 1
    43    24    39 1
    44    13    40 1
@<TRIPOS>SUBSTRUCTURE
     1 A9Y         1 TEMP              0 ****  ****    0 ROOT
