@<TRIPOS>MOLECULE
molecule
   26    28     1     0     0
SMALL
bcc


@<TRIPOS>ATOM
      1 C1           0.0000     0.0000     0.0000 ca         1 AA       -0.051000
      2 C2           1.3620     0.0000     0.0000 ca         1 AA       -0.133000
      3 C3           2.0770     0.0000     1.1970 ca         1 AA       -0.011000
      4 C4           1.4390     0.0000     2.3970 ca         1 AA       -0.193000
      5 C5          -2.5800     0.0010     4.9440 ca         1 AA       -0.193000
      6 C6          -3.9370     0.0020     5.0090 ca         1 AA       -0.011000
      7 C7          -4.7140     0.0030     3.8520 ca         1 AA       -0.133000
      8 C8          -4.1330     0.0030     2.6200 ca         1 AA       -0.051000
      9 C9          -2.1040     0.0030     1.2520 ca         1 AA        0.384600
     10 N10         -0.6070     0.0010     3.6120 na         1 AA       -0.105100
     11 C11         -1.9370     0.0010     3.6890 ca         1 AA        0.084700
     12 C12         -2.7320     0.0020     2.5120 ca         1 AA       -0.141000
     13 C13         -0.6950    -0.0030     1.2210 ca         1 AA       -0.141000
     14 C14          0.0290     0.0000     2.4430 ca         1 AA        0.084700
     15 N9          -2.8410     0.0040     0.0880 nv         1 AA       -0.995200
     16 H1          -0.5440    -0.0000    -0.9370 ha         1 AA        0.169000
     17 H2           1.8960     0.0000    -0.9420 ha         1 AA        0.168000
     18 H3           3.1600     0.0000     1.1700 ha         1 AA        0.168000
     19 H4           2.0120     0.0000     3.3160 ha         1 AA        0.162000
     20 H5          -1.9930     0.0000     5.8550 ha         1 AA        0.162000
     21 H6          -4.4230     0.0020     5.9770 ha         1 AA        0.168000
     22 H7          -5.7950     0.0040     3.9330 ha         1 AA        0.168000
     23 H8          -4.7480     0.0040     1.7280 ha         1 AA        0.169000
     24 H10         -0.0710     0.0020     4.4580 hn         1 AA        0.330700
     25 H91         -3.1090     0.8710    -0.3340 hn         1 AA        0.470800
     26 H92         -3.1100    -0.8620    -0.3350 hn         1 AA        0.470800
@<TRIPOS>BOND
     1     1     2 ar
     2     1    13 ar
     3     1    16 1
     4     2     3 ar
     5     2    17 1
     6     3     4 ar
     7     3    18 1
     8     4    14 ar
     9     4    19 1
    10     5     6 ar
    11     5    11 ar
    12     5    20 1
    13     6     7 ar
    14     6    21 1
    15     7     8 ar
    16     7    22 1
    17     8    12 ar
    18     8    23 1
    19     9    12 ar
    20     9    13 ar
    21     9    15 1
    22    10    11 2
    23    10    14 1
    24    10    24 1
    25    11    12 ar
    26    13    14 ar
    27    15    25 1
    28    15    26 1
@<TRIPOS>SUBSTRUCTURE
     1 AA          1 TEMP              0 ****  ****    0 ROOT
