@<TRIPOS>MOLECULE
AA0
   73    78     1     0     0
SMALL
bcc


@<TRIPOS>ATOM
      1 C3           0.0000     0.0000     0.0000 ca         1 AA0      -0.133000
      2 C4           1.3660     0.0000     0.0000 ca         1 AA0      -0.063000
      3 C5           2.0620     0.0000     1.2110 ca         1 AA0       0.123400
      4 N6           3.4190    -0.0000     1.2490 nc         1 AA0      -0.535100
      5 C9           2.1050    -0.0000     3.6820 c          1 AA0       0.616100
      6 N10          3.4560    -0.0000     3.5910 n          1 AA0       0.149500
      7 C11          4.2310    -0.0010     4.7580 ca         1 AA0      -0.106400
      8 C12          4.6150    -1.2020     5.3350 ca         1 AA0      -0.063000
      9 C13          5.3840    -1.1980     6.4910 ca         1 AA0      -0.092400
     10 N14          5.7730    -2.4060     7.0760 ns         1 AA0      -0.028100
     11 C15          6.0290    -3.4790     6.3010 c          1 AA0       0.584700
     12 O16          6.0150    -3.3720     5.0900 o          1 AA0      -0.631100
     13 C17          6.3270    -4.7890     6.9250 ca         1 AA0      -0.106600
     14 C18          6.3490    -4.9340     8.3180 ca         1 AA0      -0.242300
     15 C19          6.6300    -6.1710     8.8610 ca         1 AA0       0.431200
     16 N20          6.8780    -7.2110     8.0890 nb         1 AA0      -0.608000
     17 C21          6.8690    -7.1220     6.7680 ca         1 AA0       0.483200
     18 C22          6.5880    -5.9140     6.1400 ca         1 AA0      -0.175300
     19 N23          7.1370    -8.2500     6.0010 nh         1 AA0      -0.462300
     20 C28          7.4010    -9.4180     6.8540 c3         1 AA0       0.099800
     21 C27          7.6310   -10.6470     5.9720 c3         1 AA0       0.212400
     22 O26          8.7080   -10.3830     5.0680 os         1 AA0      -0.410600
     23 C25          8.4850    -9.2530     4.2200 c3         1 AA0       0.212400
     24 C24          8.2620    -8.0100     5.0870 c3         1 AA0       0.099800
     25 C29          5.7660     0.0080     7.0650 ca         1 AA0      -0.108000
     26 C30          5.3820     1.2020     6.4870 ca         1 AA0      -0.080000
     27 C31          4.6210     1.2020     5.3330 ca         1 AA0      -0.069300
     28 C20          4.0670    -0.0010     2.3740 cd         1 AA0       0.330800
     29 C32          4.2090     2.5070     4.7020 c3         1 AA0       0.051200
     30 C33          1.3410     0.0000     2.4260 ca         1 AA0      -0.187600
     31 C34         -0.0510     0.0000     2.4110 ca         1 AA0      -0.049000
     32 C35         -0.7160     0.0010     1.1960 ca         1 AA0      -0.003400
     33 C41         -2.6140     0.0010    -0.2120 c3         1 AA0       0.089300
     34 C40         -4.1420    -0.0780    -0.1990 c3         1 AA0       0.156300
     35 N31         -2.1130     0.0020     1.1700 nh         1 AA0      -0.349000
     36 N39         -4.6830     1.0620     0.5550 n3         1 AA0      -0.542600
     37 C38         -4.1820     1.0620     1.9360 c3         1 AA0       0.156300
     38 O39          1.5450     0.0010     4.7630 o          1 AA0      -0.659500
     39 C37         -2.6550     1.1420     1.9220 c3         1 AA0       0.089300
     40 C43         -4.3730     2.3320    -0.1180 c3         1 AA0       0.168100
     41 H3          -0.5340     0.0000    -0.9420 ha         1 AA0       0.122000
     42 H4           1.9090    -0.0010    -0.9380 ha         1 AA0       0.119000
     43 H20          5.1500    -0.0010     2.3430 h5         1 AA0       0.012800
     44 H12          4.2470    -2.1380     4.9320 ha         1 AA0       0.145000
     45 H14          5.8770    -2.4700     8.0690 hn         1 AA0       0.175500
     46 H29          6.3640     0.0120     7.9680 ha         1 AA0       0.107000
     47 H18          6.1460    -4.0860     8.9610 ha         1 AA0       0.112000
     48 H22          6.5820    -5.8440     5.0590 ha         1 AA0       0.146000
     49 H19          6.6490    -6.2890     9.9380 h4         1 AA0      -0.017900
     50 H281         8.2840    -9.2340     7.4540 h1         1 AA0       0.031200
     51 H282         6.5480    -9.5920     7.5000 h1         1 AA0       0.031200
     52 H241         9.1580    -7.8070     5.6620 h1         1 AA0       0.031200
     53 H242         8.0350    -7.1630     4.4500 h1         1 AA0       0.031200
     54 H271         6.7310   -10.8610     5.4080 h1         1 AA0       0.014950
     55 H272         7.8840   -11.4960     6.5960 h1         1 AA0       0.014950
     56 H251         9.3500    -9.1010     3.5870 h1         1 AA0       0.014950
     57 H252         7.6080    -9.4280     3.6090 h1         1 AA0       0.014950
     58 H30          5.6830     2.1410     6.9350 ha         1 AA0       0.112000
     59 H321         3.1580     2.6840     4.8930 hc         1 AA0       0.015367
     60 H322         4.7940     3.3140     5.1270 hc         1 AA0       0.015367
     61 H323         4.3790     2.4610     3.6330 hc         1 AA0       0.015367
     62 H34         -0.6090     0.0010     3.3400 ha         1 AA0       0.136000
     63 H371        -2.2840     1.1110     2.9390 h1         1 AA0       0.027950
     64 H372        -2.3470     2.0660     1.4470 h1         1 AA0       0.027950
     65 H381        -4.4910     0.1490     2.4300 h1         1 AA0       0.031450
     66 H382        -4.5830     1.9180     2.4640 h1         1 AA0       0.031450
     67 H431        -4.7260     2.2940    -1.1410 h1         1 AA0       0.005033
     68 H432        -4.8620     3.1450     0.4040 h1         1 AA0       0.005033
     69 H433        -3.3010     2.4920    -0.1120 h1         1 AA0       0.005033
     70 H402        -4.5130    -0.0460    -1.2160 h1         1 AA0       0.031450
     71 H411        -2.3050     0.9140    -0.7070 h1         1 AA0       0.027950
     72 H412        -2.2130    -0.8560    -0.7400 h1         1 AA0       0.027950
     73 H401        -4.4510    -1.0020     0.2750 h1         1 AA0       0.031450
@<TRIPOS>BOND
     1     1     2 ar  
     2     1    32 ar  
     3     1    41 1   
     4     2     3 ar  
     5     2    42 1   
     6     3     4 1   
     7     3    30 ar  
     8     4    28 2   
     9     5     6 1   
    10     5    30 1   
    11     5    38 2   
    12     6     7 1   
    13     6    28 1   
    14     7     8 ar  
    15     7    27 ar  
    16     8     9 ar  
    17     8    44 1   
    18     9    10 1   
    19     9    25 ar  
    20    10    11 1   
    21    10    45 1   
    22    11    12 2   
    23    11    13 1   
    24    13    14 ar  
    25    13    18 ar  
    26    14    15 ar  
    27    14    47 1   
    28    15    16 ar  
    29    15    49 1   
    30    16    17 ar  
    31    17    18 ar  
    32    17    19 1   
    33    18    48 1   
    34    19    20 1   
    35    19    24 1   
    36    20    21 1   
    37    20    50 1   
    38    20    51 1   
    39    21    22 1   
    40    21    54 1   
    41    21    55 1   
    42    22    23 1   
    43    23    24 1   
    44    23    56 1   
    45    23    57 1   
    46    24    52 1   
    47    24    53 1   
    48    25    26 ar  
    49    25    46 1   
    50    26    27 ar  
    51    26    58 1   
    52    27    29 1   
    53    28    43 1   
    54    29    59 1   
    55    29    60 1   
    56    29    61 1   
    57    30    31 ar  
    58    31    32 ar  
    59    31    62 1   
    60    32    35 1   
    61    33    34 1   
    62    33    35 1   
    63    33    71 1   
    64    33    72 1   
    65    34    36 1   
    66    34    70 1   
    67    34    73 1   
    68    35    39 1   
    69    36    37 1   
    70    36    40 1   
    71    37    39 1   
    72    37    65 1   
    73    37    66 1   
    74    39    63 1   
    75    39    64 1   
    76    40    67 1   
    77    40    68 1   
    78    40    69 1   
@<TRIPOS>SUBSTRUCTURE
     1 AA0         1 TEMP              0 ****  ****    0 ROOT
