@<TRIPOS>MOLECULE
AA1
   29    28     1     0     0
SMALL
bcc


@<TRIPOS>ATOM
      1 N3           0.0000     0.0000     0.0000 nz         1 AA1       0.278400
      2 C4           2.0390    -0.0010    -1.1680 c          1 AA1       0.600100
      3 O5           3.2510    -0.0010    -1.1680 o          1 AA1      -0.509100
      4 N6           1.3660     0.0000     0.0000 n          1 AA1      -0.307200
      5 C7           2.0990     0.0000     1.2680 c3         1 AA1      -0.050000
      6 C8           2.3510     1.4220     1.7020 c          1 AA1       0.951600
      7 O9           3.0110     1.6670     2.8440 o          1 AA1      -0.847300
      8 O10          1.9580     2.3400     1.0210 o          1 AA1      -0.847300
      9 C11          1.2850    -0.0020    -2.4720 c3         1 AA1      -0.106400
     10 C12          2.2790    -0.0030    -3.6360 c3         1 AA1      -0.050400
     11 C15          1.5240    -0.0030    -4.9400 c          1 AA1       0.706100
     12 O16          0.3160    -0.0040    -4.9410 o          1 AA1      -0.612000
     13 O17          2.1950    -0.0040    -6.1030 os         1 AA1      -0.413900
     14 C18          1.4690    -0.0050    -7.3600 c3         1 AA1       0.236400
     15 C19          2.4620    -0.0060    -8.5240 c3         1 AA1      -0.003100
     16 H3N1        -0.3340     0.7870    -0.5200 hn         1 AA1       0.208133
     17 H3N2        -0.3340    -0.8440    -0.4220 hn         1 AA1       0.208133
     18 H7C1         1.5140    -0.5100     2.0230 h1         1 AA1       0.048700
     19 H7C2         3.0460    -0.5110     1.1380 h1         1 AA1       0.048700
     20 H111         0.6630     0.8830    -2.5300 hc         1 AA1       0.037700
     21 H112         0.6620    -0.8860    -2.5290 hc         1 AA1       0.037700
     22 H121         2.9010    -0.8880    -3.5790 hc         1 AA1       0.061200
     23 H122         2.9020     0.8810    -3.5800 hc         1 AA1       0.061200
     24 H181         0.8460    -0.8890    -7.4170 h1         1 AA1       0.007200
     25 H182         0.8460     0.8800    -7.4180 h1         1 AA1       0.007200
     26 H191         3.0850    -0.8910    -8.4670 hc         1 AA1       0.014033
     27 H192         1.9200    -0.0060    -9.4620 hc         1 AA1       0.014033
     28 H193         3.0850     0.8780    -8.4680 hc         1 AA1       0.014033
     29 H33         -0.3340     0.0470     0.9420 hn         1 AA1       0.208133
@<TRIPOS>BOND
     1     1     4 1   
     2     1    16 1   
     3     1    17 1   
     4     1    29 1   
     5     2     3 2   
     6     2     4 1   
     7     2     9 1   
     8     4     5 1   
     9     5     6 1   
    10     5    18 1   
    11     5    19 1   
    12     6     7 1   
    13     6     8 1   
    14     9    10 1   
    15     9    20 1   
    16     9    21 1   
    17    10    11 1   
    18    10    22 1   
    19    10    23 1   
    20    11    12 2   
    21    11    13 1   
    22    13    14 1   
    23    14    15 1   
    24    14    24 1   
    25    14    25 1   
    26    15    26 1   
    27    15    27 1   
    28    15    28 1   
@<TRIPOS>SUBSTRUCTURE
     1 AA1         1 TEMP              0 ****  ****    0 ROOT
