@<TRIPOS>MOLECULE
AA2
   63    66     1     0     0
SMALL
bcc


@<TRIPOS>ATOM
      1 N1           0.0000     0.0000     0.0000 nb         1 AA2      -0.655000
      2 C2           1.3240     0.0000     0.0000 ca         1 AA2       0.707900
      3 N3           2.0200     0.0000     1.1260 nb         1 AA2      -0.678000
      4 C4           1.4040    -0.0000     2.3040 cp         1 AA2       0.495800
      5 C5           0.0060    -0.0040     2.3370 ca         1 AA2      -0.352200
      6 C6          -0.6810    -0.0000     1.1350 ca         1 AA2       0.509200
      7 C7           2.1870    -0.0010     3.5640 cp         1 AA2      -0.098500
      8 C8           3.3390    -0.7760     3.6700 ca         1 AA2      -0.048500
      9 C9           4.0640    -0.7720     4.8450 ca         1 AA2      -0.097000
     10 C10          3.6480    -0.0010     5.9160 ca         1 AA2      -0.173300
     11 C11          2.5020     0.7660     5.8170 ca         1 AA2      -0.097000
     12 C12          1.7720     0.7740     4.6460 ca         1 AA2      -0.048500
     13 C13          1.2850    -0.1170    -2.4070 ca         1 AA2      -0.033400
     14 C14          1.7320     0.5340    -3.5490 ca         1 AA2      -0.109000
     15 C15          1.0270     0.4170    -4.7310 ca         1 AA2      -0.076500
     16 C16         -0.1240    -0.3470    -4.7760 ca         1 AA2      -0.088300
     17 C17         -0.5720    -0.9960    -3.6410 ca         1 AA2      -0.076500
     18 C18          0.1330    -0.8880    -2.4580 ca         1 AA2      -0.109000
     19 N19          1.9980    -0.0010    -1.2100 nu         1 AA2      -0.256300
     20 Cl20        -0.8470    -0.0040     3.8490 cl         1 AA2       0.011600
     21 C21          4.4440    -0.0020     7.1950 c3         1 AA2      -0.011500
     22 C22          3.5060     0.2500     8.3780 c3         1 AA2      -0.004600
     23 C23          5.5010     1.1010     7.1390 c3         1 AA2      -0.004600
     24 N24          5.1030    -1.3040     7.3610 nz         1 AA2       0.054400
     25 C25         -0.8930    -0.4720    -6.0670 c3         1 AA2       0.016900
     26 C26         -0.3700    -1.6720    -6.8570 c3         1 AA2       0.143800
     27 N27         -1.1180    -1.7940    -8.1150 n3         1 AA2      -0.519600
     28 C28         -0.5700    -2.9590    -8.8220 c3         1 AA2       0.094800
     29 C29         -1.1850    -3.0460   -10.2190 c3         1 AA2       0.200900
     30 O30         -0.8230    -1.8910   -10.9770 os         1 AA2      -0.392600
     31 C31         -1.3920    -0.7610   -10.3190 c3         1 AA2       0.200900
     32 C32         -0.7830    -0.6160    -8.9230 c3         1 AA2       0.094800
     33 H6          -1.7520     0.1610     1.1240 h4         1 AA2       0.001100
     34 H8           3.6650    -1.3800     2.8330 ha         1 AA2       0.138500
     35 H9           4.9610    -1.3730     4.9280 ha         1 AA2       0.102500
     36 H11          2.1810     1.3680     6.6580 ha         1 AA2       0.102500
     37 H12          0.8740     1.3750     4.5700 ha         1 AA2       0.138500
     38 H14          2.6330     1.1350    -3.5130 ha         1 AA2       0.117500
     39 H15          1.3750     0.9250    -5.6220 ha         1 AA2       0.112000
     40 H17         -1.4730    -1.5960    -3.6800 ha         1 AA2       0.112000
     41 H18         -0.2180    -1.3970    -1.5690 ha         1 AA2       0.117500
     42 H19          2.9980     0.0520    -1.2260 hn         1 AA2       0.293800
     43 H221         2.6530    -0.4140     8.3100 hc         1 AA2       0.038867
     44 H222         4.0360     0.0630     9.3040 hc         1 AA2       0.038867
     45 H223         3.1670     1.2780     8.3570 hc         1 AA2       0.038867
     46 H231         5.0150     2.0610     7.0090 hc         1 AA2       0.038867
     47 H232         6.0670     1.1060     8.0630 hc         1 AA2       0.038867
     48 H233         6.1700     0.9190     6.3070 hc         1 AA2       0.038867
     49 H241         5.4720    -1.3750     8.2880 hn         1 AA2       0.229467
     50 H242         5.8480    -1.3870     6.6980 hn         1 AA2       0.229467
     51 H251        -1.9440    -0.6140    -5.8490 hc         1 AA2       0.031200
     52 H252        -0.7630     0.4300    -6.6530 hc         1 AA2       0.031200
     53 H261         0.6820    -1.5310    -7.0740 h1         1 AA2       0.014700
     54 H262        -0.4990    -2.5740    -6.2710 h1         1 AA2       0.014700
     55 H281         0.5050    -2.8550    -8.9080 h1         1 AA2       0.021950
     56 H282        -0.8070    -3.8600    -8.2680 h1         1 AA2       0.021950
     57 H291        -0.8160    -3.9330   -10.7190 h1         1 AA2       0.015950
     58 H292        -2.2640    -3.0960   -10.1340 h1         1 AA2       0.015950
     59 H311        -2.4630    -0.8980   -10.2310 h1         1 AA2       0.015950
     60 H312        -1.1840     0.1330   -10.8950 h1         1 AA2       0.015950
     61 H321        -1.1820     0.2710    -8.4460 h1         1 AA2       0.021950
     62 H322         0.2940    -0.5330    -9.0070 h1         1 AA2       0.021950
     63 H243         4.4400    -2.0360     7.2030 hn         1 AA2       0.229467
@<TRIPOS>BOND
     1     1     2 ar  
     2     1     6 ar  
     3     2     3 ar  
     4     2    19 1   
     5     3     4 ar  
     6     4     5 ar  
     7     4     7 1   
     8     5     6 ar  
     9     5    20 1   
    10     6    33 1   
    11     7     8 ar  
    12     7    12 ar  
    13     8     9 ar  
    14     8    34 1   
    15     9    10 ar  
    16     9    35 1   
    17    10    11 ar  
    18    10    21 1   
    19    11    12 ar  
    20    11    36 1   
    21    12    37 1   
    22    13    14 ar  
    23    13    18 ar  
    24    13    19 1   
    25    14    15 ar  
    26    14    38 1   
    27    15    16 ar  
    28    15    39 1   
    29    16    17 ar  
    30    16    25 1   
    31    17    18 ar  
    32    17    40 1   
    33    18    41 1   
    34    19    42 1   
    35    21    22 1   
    36    21    23 1   
    37    21    24 1   
    38    22    43 1   
    39    22    44 1   
    40    22    45 1   
    41    23    46 1   
    42    23    47 1   
    43    23    48 1   
    44    24    49 1   
    45    24    50 1   
    46    24    63 1   
    47    25    26 1   
    48    25    51 1   
    49    25    52 1   
    50    26    27 1   
    51    26    53 1   
    52    26    54 1   
    53    27    28 1   
    54    27    32 1   
    55    28    29 1   
    56    28    55 1   
    57    28    56 1   
    58    29    30 1   
    59    29    57 1   
    60    29    58 1   
    61    30    31 1   
    62    31    32 1   
    63    31    59 1   
    64    31    60 1   
    65    32    61 1   
    66    32    62 1   
@<TRIPOS>SUBSTRUCTURE
     1 AA2         1 TEMP              0 ****  ****    0 ROOT
