@<TRIPOS>MOLECULE
molecule
   40    40     1     0     0
SMALL
bcc


@<TRIPOS>ATOM
      1 N            0.0000     0.0000     0.0000 n2         1 AA5      -0.560900
      2 CA           1.5030     0.0000     0.0000 c3         1 AA5       0.024500
      3 C            2.0610     0.0000     1.4730 c          1 AA5       0.919600
      4 O1           3.1800    -0.5130     1.7150 o          1 AA5      -0.849800
      5 CB           2.0830     1.2290    -0.7980 c3         1 AA5      -0.055400
      6 CG           2.0950     2.5750    -0.0460 c3         1 AA5       0.036700
      7 SD           2.7990     3.9850    -0.9530 ss         1 AA5      -0.369200
      8 CE           3.8590     4.7090     0.3350 c3         1 AA5      -0.007000
      9 O2           1.3940     0.5350     2.3840 o          1 AA5      -0.849800
     10 C2          -3.8360     2.1160    -0.1280 ca         1 AA5       0.335600
     11 C2A         -4.7860     2.2860     1.0450 c3         1 AA5      -0.113400
     12 C3          -2.7940     1.1900    -0.0570 ca         1 AA5      -0.013200
     13 C4          -1.8840     1.0400    -1.1750 ca         1 AA5      -0.074900
     14 C4A         -0.7190     0.0050    -1.0750 ce         1 AA5       0.399800
     15 C5          -2.0640     1.8270    -2.3510 ca         1 AA5      -0.145600
     16 C5A         -1.1010     1.7290    -3.5700 c3         1 AA5       0.237700
     17 C6          -3.1280     2.7430    -2.3860 ca         1 AA5       0.389200
     18 N1          -4.0070     2.8770    -1.2870 nb         1 AA5      -0.736000
     19 O4P         -1.4240     0.8230    -4.6590 os         1 AA5      -0.583200
     20 P           -0.2170     0.5160    -5.7510 p5         1 AA5       1.239900
     21 HA           1.8390    -0.9070    -0.4880 h1         1 AA5       0.045700
     22 HB1          1.4950     1.3530    -1.7000 hc         1 AA5       0.061200
     23 HB2          3.1000     0.9950    -1.0860 hc         1 AA5       0.061200
     24 HG1          2.6620     2.4450     0.8680 h1         1 AA5       0.073200
     25 HG2          1.0740     2.8210     0.2210 h1         1 AA5       0.073200
     26 HE1          4.2300     5.6700    -0.0010 h1         1 AA5       0.040033
     27 HE2          3.2840     4.8420     1.2430 h1         1 AA5       0.040033
     28 HE3          4.6940     4.0470     0.5290 h1         1 AA5       0.040033
     29 H2A1        -4.2180     2.4890     1.9440 hc         1 AA5       0.029033
     30 H2A2        -5.4590     3.1120     0.8480 hc         1 AA5       0.029033
     31 H2A3        -5.3610     1.3770     1.1780 hc         1 AA5       0.029033
     32 H4A         -0.1740    -0.0750    -2.0070 h4         1 AA5       0.010800
     33 H5A1        -0.1280     1.4440    -3.1900 h1         1 AA5       0.042700
     34 H5A2        -1.0120     2.7220    -3.9920 h1         1 AA5       0.042700
     35 H6          -3.2840     3.3480    -3.2710 h4         1 AA5       0.032100
     36 HO3         -3.0700    -0.3830     1.0000 ho         1 AA5       0.392000
     37 O3          -2.6450     0.4520     1.1020 oh         1 AA5      -0.494100
     38 O1P         -0.5930    -0.4460    -6.8120 o          1 AA5      -0.923167
     39 O2P         -0.0360     1.9250    -6.5160 o          1 AA5      -0.923167
     40 O3P          1.0590     0.2790    -4.9930 o          1 AA5      -0.923167
@<TRIPOS>BOND
     1     1     2 1
     2     1    14 2
     3     2     3 1
     4     2     5 1
     5     2    21 1
     6     3     4 1
     7     3     9 1
     8     5     6 1
     9     5    22 1
    10     5    23 1
    11     6     7 1
    12     6    24 1
    13     6    25 1
    14     7     8 1
    15     8    26 1
    16     8    27 1
    17     8    28 1
    18    10    11 1
    19    10    12 ar
    20    10    18 ar
    21    11    29 1
    22    11    30 1
    23    11    31 1
    24    12    13 ar
    25    12    37 1
    26    13    14 1
    27    13    15 ar
    28    14    32 1
    29    15    16 1
    30    15    17 ar
    31    16    19 1
    32    16    33 1
    33    16    34 1
    34    17    18 ar
    35    17    35 1
    36    38    20 1
    37    39    20 1
    38    37    36 1
    39    40    20 1
    40    19    20 1
@<TRIPOS>SUBSTRUCTURE
     1 AA5         1 TEMP              0 ****  ****    0 ROOT
