@<TRIPOS>MOLECULE
AA7
   77    82     1     0     0
SMALL
bcc


@<TRIPOS>ATOM
      1 C1           0.0000     0.0000     0.0000 ca         1 AA7       0.400600
      2 C2           1.3830     0.0000     0.0000 ca         1 AA7      -0.172600
      3 C3           2.1990     0.0000     1.2660 c3         1 AA7       0.038900
      4 C4           1.3440     0.4290     2.4560 c3         1 AA7      -0.030400
      5 C5           0.0640    -0.4170     2.4610 c3         1 AA7      -0.027400
      6 C6          -0.8020     0.0120     1.2790 c3         1 AA7      -0.067700
      7 N7          -0.6810    -0.0080    -1.1340 nb         1 AA7      -0.579000
      8 C8          -0.0860    -0.0120    -2.3280 ca         1 AA7       0.382600
      9 C9           1.3270    -0.0050    -2.4090 ca         1 AA7      -0.174300
     10 C10          2.0720    -0.0050    -1.2090 ca         1 AA7       0.043600
     11 N11          3.4590    -0.0040    -1.2350 nu         1 AA7      -0.474100
     12 C14          1.9520    -0.0140    -3.6630 ca         1 AA7      -0.098000
     13 C15          1.1910    -0.0210    -4.7940 ca         1 AA7      -0.094000
     14 C16         -0.1990    -0.0230    -4.7180 ca         1 AA7      -0.099000
     15 C17         -0.8370    -0.0190    -3.5170 ca         1 AA7      -0.137300
     16 C19          9.7570     6.0300    -1.7230 c3         1 AA7       0.144800
     17 C20          9.3220     4.5760    -1.5310 c3         1 AA7      -0.036900
     18 C21          7.7980     4.4840    -1.6210 c3         1 AA7      -0.026400
     19 C22          7.3620     3.0300    -1.4300 c3         1 AA7      -0.028400
     20 C23          5.8370     2.9390    -1.5200 c3         1 AA7      -0.026400
     21 C24          5.4020     1.4840    -1.3300 c3         1 AA7      -0.036900
     22 C25          3.8770     1.3920    -1.4180 c3         1 AA7       0.144800
     23 C26         12.2480     9.3750    -2.9920 ca         1 AA7       0.400600
     24 C27         11.9300     8.0290    -2.9330 ca         1 AA7      -0.172600
     25 C28         11.9860     7.1240    -4.1360 c3         1 AA7       0.038900
     26 C29         12.0000     7.9450    -5.4240 c3         1 AA7      -0.030400
     27 C30         13.1030     9.0050    -5.3070 c3         1 AA7      -0.027400
     28 C31         12.6660    10.0430    -4.2780 c3         1 AA7      -0.067700
     29 N32         12.1930    10.1340    -1.9100 nb         1 AA7      -0.579000
     30 C33         11.8330     9.6600    -0.7170 ca         1 AA7       0.382600
     31 C34         11.4850     8.2940    -0.5800 ca         1 AA7      -0.174300
     32 C35         11.5440     7.4640    -1.7200 ca         1 AA7       0.043600
     33 N36         11.2210     6.1180    -1.6360 nu         1 AA7      -0.474100
     34 C39         11.1100     7.7940     0.6750 ca         1 AA7      -0.098000
     35 C40         11.0740     8.6320     1.7490 ca         1 AA7      -0.094000
     36 C41         11.4100     9.9780     1.6170 ca         1 AA7      -0.099000
     37 C42         11.7830    10.4930     0.4150 ca         1 AA7      -0.137300
     38 H3C1         3.0270     0.6900     1.1560 hc         1 AA7       0.028700
     39 H3C2         2.5800    -0.9980     1.4430 hc         1 AA7       0.028700
     40 H4C1         1.8920     0.2650     3.3750 hc         1 AA7       0.016700
     41 H4C2         1.0860     1.4770     2.3590 hc         1 AA7       0.016700
     42 H5C1        -0.4760    -0.2540     3.3850 hc         1 AA7       0.017200
     43 H5C2         0.3210    -1.4650     2.3620 hc         1 AA7       0.017200
     44 H6C1        -1.1750     1.0130     1.4560 hc         1 AA7       0.028950
     45 H6C2        -1.6360    -0.6730     1.1820 hc         1 AA7       0.028950
     46 H11          3.9510    -0.7400    -1.7020 hn         1 AA7       0.290300
     47 H14          3.0330    -0.0120    -3.7340 ha         1 AA7       0.105500
     48 H15          1.6750    -0.0230    -5.7640 ha         1 AA7       0.101500
     49 H16         -0.7830    -0.0280    -5.6310 ha         1 AA7       0.103000
     50 H17         -1.9190    -0.0210    -3.4760 ha         1 AA7       0.116500
     51 H191         9.4300     6.3800    -2.6950 h1         1 AA7       0.017450
     52 H192         9.3120     6.6450    -0.9500 h1         1 AA7       0.017450
     53 H201         9.6480     4.2260    -0.5590 hc         1 AA7       0.018450
     54 H202         9.7670     3.9610    -2.3050 hc         1 AA7       0.018450
     55 H211         7.4710     4.8340    -2.5930 hc         1 AA7       0.016450
     56 H212         7.3530     5.0990    -0.8480 hc         1 AA7       0.016450
     57 H221         7.6880     2.6800    -0.4580 hc         1 AA7       0.015700
     58 H222         7.8060     2.4150    -2.2030 hc         1 AA7       0.015700
     59 H231         5.5110     3.2890    -2.4920 hc         1 AA7       0.016450
     60 H232         5.3920     3.5530    -0.7460 hc         1 AA7       0.016450
     61 H241         5.7280     1.1330    -0.3580 hc         1 AA7       0.018450
     62 H242         5.8460     0.8700    -2.1030 hc         1 AA7       0.018450
     63 H251         3.4330     2.0070    -0.6450 h1         1 AA7       0.017450
     64 H252         3.5500     1.7420    -2.3900 h1         1 AA7       0.017450
     65 H282        12.8850     6.5220    -4.0870 hc         1 AA7       0.028700
     66 H291        12.2070     7.2960    -6.2660 hc         1 AA7       0.016700
     67 H292        11.0410     8.4310    -5.5560 hc         1 AA7       0.016700
     68 H301        14.0240     8.5370    -4.9830 hc         1 AA7       0.017200
     69 H302        13.2490     9.4840    -6.2680 hc         1 AA7       0.017200
     70 H311        13.4920    10.7150    -4.0770 hc         1 AA7       0.028950
     71 H312        11.8290    10.6070    -4.6740 hc         1 AA7       0.028950
     72 H36         11.7230     5.5220    -1.0090 hn         1 AA7       0.290300
     73 H39         10.8470     6.7500     0.7900 ha         1 AA7       0.105500
     74 H40         10.7800     8.2470     2.7180 ha         1 AA7       0.101500
     75 H41         11.3730    10.6240     2.4860 ha         1 AA7       0.103000
     76 H42         12.0410    11.5410     0.3300 ha         1 AA7       0.116500
     77 H281        11.1160     6.4780    -4.1350 hc         1 AA7       0.028700
@<TRIPOS>BOND
     1     1     2 ar  
     2     1     6 1   
     3     1     7 ar  
     4     2     3 1   
     5     2    10 ar  
     6     3     4 1   
     7     3    38 1   
     8     3    39 1   
     9     4     5 1   
    10     4    40 1   
    11     4    41 1   
    12     5     6 1   
    13     5    42 1   
    14     5    43 1   
    15     6    44 1   
    16     6    45 1   
    17     7     8 ar  
    18     8     9 ar  
    19     8    15 ar  
    20     9    10 ar  
    21     9    12 ar  
    22    10    11 1   
    23    11    22 1   
    24    11    46 1   
    25    12    13 ar  
    26    12    47 1   
    27    13    14 ar  
    28    13    48 1   
    29    14    15 ar  
    30    14    49 1   
    31    15    50 1   
    32    16    17 1   
    33    16    33 1   
    34    16    51 1   
    35    16    52 1   
    36    17    18 1   
    37    17    53 1   
    38    17    54 1   
    39    18    19 1   
    40    18    55 1   
    41    18    56 1   
    42    19    20 1   
    43    19    57 1   
    44    19    58 1   
    45    20    21 1   
    46    20    59 1   
    47    20    60 1   
    48    21    22 1   
    49    21    61 1   
    50    21    62 1   
    51    22    63 1   
    52    22    64 1   
    53    23    24 ar  
    54    23    28 1   
    55    23    29 ar  
    56    24    25 1   
    57    24    32 ar  
    58    25    26 1   
    59    25    65 1   
    60    25    77 1   
    61    26    27 1   
    62    26    66 1   
    63    26    67 1   
    64    27    28 1   
    65    27    68 1   
    66    27    69 1   
    67    28    70 1   
    68    28    71 1   
    69    29    30 ar  
    70    30    31 ar  
    71    30    37 ar  
    72    31    32 ar  
    73    31    34 ar  
    74    32    33 1   
    75    33    72 1   
    76    34    35 ar  
    77    34    73 1   
    78    35    36 ar  
    79    35    74 1   
    80    36    37 ar  
    81    36    75 1   
    82    37    76 1   
@<TRIPOS>SUBSTRUCTURE
     1 AA7         1 TEMP              0 ****  ****    0 ROOT
