@<TRIPOS>MOLECULE
molecule
   93    96     1     0     0
SMALL
bcc


@<TRIPOS>ATOM
      1 C1           0.0000     0.0000     0.0000 c3         1 AA9      -0.109100
      2 C2           1.5300     0.0000     0.0000 c3         1 AA9       0.233800
      3 N3           2.0180     0.0000     1.3820 nu         1 AA9      -0.830600
      4 C4           3.3910     0.0000     1.6370 ca         1 AA9       0.199600
      5 C5           3.8530     0.0000     2.9470 ca         1 AA9      -0.193000
      6 C6           5.2170     0.0010     3.2060 ca         1 AA9       0.151600
      7 C7           6.1240     0.0010     2.1560 ca         1 AA9      -0.102000
      8 C8           5.6640     0.0000     0.8380 ca         1 AA9      -0.092600
      9 C9           4.2920    -0.0050     0.5820 ca         1 AA9      -0.188000
     10 C10          6.6270     0.0010    -0.2820 c          1 AA9       0.670700
     11 O11          7.8220     0.0020    -0.0580 o          1 AA9      -0.582100
     12 N12          6.1810     0.0010    -1.5550 ns         1 AA9      -0.581900
     13 C13          7.1350     0.0010    -2.6670 c3         1 AA9       0.117700
     14 C14          7.5640    -1.4350    -2.9710 c3         1 AA9      -0.045100
     15 C15          8.3220    -1.9940    -1.7940 ca         1 AA9      -0.070300
     16 C16          7.6460    -2.6550    -0.7860 ca         1 AA9      -0.117000
     17 C17          8.3400    -3.1670     0.2930 ca         1 AA9      -0.119500
     18 C18          9.7130    -3.0180     0.3640 ca         1 AA9      -0.125000
     19 C19         10.3910    -2.3580    -0.6440 ca         1 AA9      -0.119500
     20 C20          9.6950    -1.8500    -1.7260 ca         1 AA9      -0.117000
     21 C21          6.4750     0.6100    -3.9050 c3         1 AA9       0.136100
     22 O22          5.3990    -0.2270    -4.3310 oh         1 AA9      -0.595800
     23 C23          7.5080     0.7260    -5.0280 c3         1 AA9       0.138800
     24 N24          6.9070     1.4190    -6.1750 n7         1 AA9      -0.800200
     25 C25          7.8720     1.5480    -7.2760 c3         1 AA9       0.091500
     26 C26          7.8550     0.2720    -8.1210 c3         1 AA9      -0.089100
     27 C27          7.4970     2.7270    -8.1370 c          1 AA9       0.657100
     28 O28          6.5220     3.3930    -7.8610 o          1 AA9      -0.607100
     29 N29          8.2440     3.0400    -9.2140 ns         1 AA9      -0.581900
     30 C30          7.8790     4.1850   -10.0510 c3         1 AA9       0.117700
     31 C31          9.1250     4.7070   -10.7710 c3         1 AA9      -0.093400
     32 C32          8.7430     5.9040   -11.6440 c3         1 AA9      -0.076900
     33 C33          7.7020     5.4700   -12.6780 c3         1 AA9      -0.083400
     34 C34          6.4570     4.9470   -11.9590 c3         1 AA9      -0.076900
     35 C35          6.8380     3.7510   -11.0840 c3         1 AA9      -0.093400
     36 N36          5.6770     0.0010     4.5250 nh         1 AA9      -0.549300
     37 C37          5.3860    -1.0750     5.3670 ca         1 AA9       0.152600
     38 C38          4.7050    -0.8620     6.5590 ca         1 AA9      -0.131500
     39 C39          4.4180    -1.9280     7.3890 ca         1 AA9      -0.111500
     40 C40          4.8070    -3.2070     7.0340 ca         1 AA9      -0.132000
     41 C41          5.4850    -3.4220     5.8480 ca         1 AA9      -0.111500
     42 C42          5.7710    -2.3620     5.0110 ca         1 AA9      -0.131500
     43 S43          6.5680     1.2770     5.0910 s6         1 AA9       1.319900
     44 C44          5.3310     2.5010     5.6030 c3         1 AA9      -0.255300
     45 O45          7.2510     0.7540     6.2230 o          1 AA9      -0.609300
     46 O46          7.2830     1.7380     3.9520 o          1 AA9      -0.609300
     47 H11C        -0.3610    -0.8840     0.5110 hc         1 AA9       0.044700
     48 H12C        -0.3610    -0.0000    -1.0210 hc         1 AA9       0.044700
     49 H13C        -0.3610     0.8850     0.5100 hc         1 AA9       0.044700
     50 H21C         1.8910     0.8850    -0.5110 h1         1 AA9       0.037200
     51 H22C         1.8910    -0.8850    -0.5110 h1         1 AA9       0.037200
     52 H3           1.3670    -0.0000     2.1420 hn         1 AA9       0.440800
     53 H5           3.1470     0.0000     3.7690 ha         1 AA9       0.136000
     54 H9           3.9310    -0.0060    -0.4390 ha         1 AA9       0.129000
     55 H7           7.1880     0.0040     2.3580 ha         1 AA9       0.183000
     56 H12          5.1980     0.0250    -1.7400 hn         1 AA9       0.314500
     57 H13          8.0050     0.5880    -2.3960 h1         1 AA9       0.086700
     58 H141         8.2010    -1.4440    -3.8470 hc         1 AA9       0.059700
     59 H142         6.6870    -2.0430    -3.1560 hc         1 AA9       0.059700
     60 H21          6.0930     1.5950    -3.6630 h1         1 AA9       0.040700
     61 H16          6.5700    -2.7720    -0.8420 ha         1 AA9       0.122000
     62 H20         10.2250    -1.3320    -2.5160 ha         1 AA9       0.122000
     63 H17          7.8100    -3.6850     1.0830 ha         1 AA9       0.123000
     64 H18         10.2580    -3.4180     1.2110 ha         1 AA9       0.124000
     65 H19         11.4660    -2.2430    -0.5900 ha         1 AA9       0.123000
     66 H22          4.6200     0.2930    -4.4400 ho         1 AA9       0.406000
     67 H231         8.3650     1.2870    -4.6750 h1         1 AA9       0.045200
     68 H232         7.8260    -0.2650    -5.3310 h1         1 AA9       0.045200
     69 H24          6.6010     2.3290    -5.8920 hn         1 AA9       0.373800
     70 H25          8.8650     1.6990    -6.8700 h1         1 AA9       0.037700
     71 H261         8.8400    -0.1790    -8.1140 hc         1 AA9       0.048033
     72 H262         7.1360    -0.4250    -7.7080 hc         1 AA9       0.048033
     73 H263         7.5780     0.5170    -9.1390 hc         1 AA9       0.048033
     74 H29          9.0720     2.5150    -9.4180 hn         1 AA9       0.313500
     75 H30          7.4650     4.9720    -9.4330 h1         1 AA9       0.079700
     76 H311         9.8610     5.0170   -10.0390 hc         1 AA9       0.047950
     77 H312         9.5360     3.9230   -11.3950 hc         1 AA9       0.047950
     78 H351         7.2530     2.9680   -11.7060 hc         1 AA9       0.047950
     79 H352         5.9560     3.3840   -10.5730 hc         1 AA9       0.047950
     80 H321         9.6250     6.2730   -12.1550 hc         1 AA9       0.045450
     81 H322         8.3270     6.6860   -11.0210 hc         1 AA9       0.045450
     82 H331         7.4310     6.3180   -13.2950 hc         1 AA9       0.042200
     83 H332         8.1160     4.6840   -13.2980 hc         1 AA9       0.042200
     84 H341         6.0450     5.7320   -11.3360 hc         1 AA9       0.045450
     85 H342         5.7220     4.6370   -12.6910 hc         1 AA9       0.045450
     86 H38          4.4000     0.1390     6.8380 ha         1 AA9       0.135000
     87 H42          6.3020    -2.5320     4.0820 ha         1 AA9       0.135000
     88 H39          3.8870    -1.7620     8.3180 ha         1 AA9       0.133000
     89 H40          4.5830    -4.0410     7.6870 ha         1 AA9       0.131000
     90 H41          5.7870    -4.4250     5.5730 ha         1 AA9       0.133000
     91 H441         4.3380     2.1030     5.4320 h1         1 AA9       0.100367
     92 H442         5.4560     2.7210     6.6560 h1         1 AA9       0.100367
     93 H443         5.4610     3.4090     5.0260 h1         1 AA9       0.100367
@<TRIPOS>BOND
     1     1     2 1
     2     2     3 1
     3     3     4 1
     4     4     5 ar
     5     4     9 ar
     6     5     6 ar
     7     6     7 ar
     8     6    36 1
     9     7     8 ar
    10     8     9 ar
    11     8    10 1
    12    10    11 2
    13    10    12 1
    14    12    13 1
    15    13    14 1
    16    13    21 1
    17    14    15 1
    18    15    16 ar
    19    15    20 ar
    20    16    17 ar
    21    17    18 ar
    22    18    19 ar
    23    19    20 ar
    24    21    22 1
    25    21    23 1
    26    23    24 1
    27    24    25 1
    28    25    26 1
    29    25    27 1
    30    27    28 2
    31    27    29 1
    32    29    30 1
    33    30    31 1
    34    30    35 1
    35    31    32 1
    36    32    33 1
    37    33    34 1
    38    34    35 1
    39    36    37 1
    40    36    43 1
    41    37    38 ar
    42    37    42 ar
    43    38    39 ar
    44    39    40 ar
    45    40    41 ar
    46    41    42 ar
    47    43    44 1
    48    43    45 2
    49    43    46 2
    50     1    47 1
    51     1    48 1
    52     1    49 1
    53     2    50 1
    54     2    51 1
    55     3    52 1
    56     5    53 1
    57     9    54 1
    58     7    55 1
    59    12    56 1
    60    13    57 1
    61    14    58 1
    62    14    59 1
    63    21    60 1
    64    16    61 1
    65    20    62 1
    66    17    63 1
    67    18    64 1
    68    19    65 1
    69    22    66 1
    70    23    67 1
    71    23    68 1
    72    24    69 1
    73    25    70 1
    74    26    71 1
    75    26    72 1
    76    26    73 1
    77    29    74 1
    78    30    75 1
    79    31    76 1
    80    31    77 1
    81    35    78 1
    82    35    79 1
    83    32    80 1
    84    32    81 1
    85    33    82 1
    86    33    83 1
    87    34    84 1
    88    34    85 1
    89    38    86 1
    90    42    87 1
    91    39    88 1
    92    40    89 1
    93    41    90 1
    94    44    91 1
    95    44    92 1
    96    44    93 1
@<TRIPOS>SUBSTRUCTURE
     1 AA9         1 TEMP              0 ****  ****    0 ROOT
