@<TRIPOS>MOLECULE
AA9
   93    96     1     0     0
SMALL
bcc


@<TRIPOS>ATOM
      1 C1           0.0000     0.0000     0.0000 c3         1 AA9      -0.003100
      2 C2           1.5300     0.0000     0.0000 c3         1 AA9       0.166800
      3 N3           2.0180     0.0000     1.3820 nu         1 AA9      -0.437600
      4 C4           3.3910     0.0000     1.6370 ca         1 AA9       0.067600
      5 C5           3.8530     0.0000     2.9470 ca         1 AA9      -0.183000
      6 C6           5.2170     0.0010     3.2060 ca         1 AA9       0.079600
      7 C7           6.1240     0.0010     2.1560 ca         1 AA9      -0.079000
      8 C8           5.6640     0.0000     0.8380 ca         1 AA9      -0.094600
      9 C9           4.2920    -0.0050     0.5820 ca         1 AA9      -0.183000
     10 C10          6.6270     0.0010    -0.2820 c          1 AA9       0.591700
     11 O11          7.8220     0.0020    -0.0580 o          1 AA9      -0.625100
     12 N12          6.1810     0.0010    -1.5550 ns         1 AA9      -0.198900
     13 C13          7.1350     0.0010    -2.6670 c3         1 AA9       0.009700
     14 C14          7.5640    -1.4350    -2.9710 c3         1 AA9       0.011900
     15 C15          8.3220    -1.9940    -1.7940 ca         1 AA9      -0.077300
     16 C16          7.6460    -2.6550    -0.7860 ca         1 AA9      -0.093500
     17 C17          8.3400    -3.1670     0.2930 ca         1 AA9      -0.090500
     18 C18          9.7130    -3.0180     0.3640 ca         1 AA9      -0.098000
     19 C19         10.3910    -2.3580    -0.6440 ca         1 AA9      -0.090500
     20 C20          9.6950    -1.8500    -1.7260 ca         1 AA9      -0.093500
     21 C21          6.4750     0.6100    -3.9050 c3         1 AA9       0.182100
     22 O22          5.3990    -0.2270    -4.3310 oh         1 AA9      -0.576800
     23 C23          7.5080     0.7260    -5.0280 c3         1 AA9       0.110800
     24 N24          6.9070     1.4190    -6.1750 n7         1 AA9      -0.567200
     25 C25          7.8720     1.5480    -7.2760 c3         1 AA9       0.047500
     26 C26          7.8550     0.2720    -8.1210 c3         1 AA9      -0.001100
     27 C27          7.4970     2.7270    -8.1370 c          1 AA9       0.572100
     28 O28          6.5220     3.3930    -7.8610 o          1 AA9      -0.644100
     29 N29          8.2440     3.0400    -9.2140 ns         1 AA9      -0.187900
     30 C30          7.8790     4.1850   -10.0510 c3         1 AA9       0.016700
     31 C31          9.1250     4.7070   -10.7710 c3         1 AA9      -0.039900
     32 C32          8.7430     5.9040   -11.6440 c3         1 AA9      -0.017400
     33 C33          7.7020     5.4700   -12.6780 c3         1 AA9      -0.028400
     34 C34          6.4570     4.9470   -11.9590 c3         1 AA9      -0.017400
     35 C35          6.8380     3.7510   -11.0840 c3         1 AA9      -0.039900
     36 N36          5.6770     0.0010     4.5250 nh         1 AA9      -0.216300
     37 C37          5.3860    -1.0750     5.3670 ca         1 AA9       0.082600
     38 C38          4.7050    -0.8620     6.5590 ca         1 AA9      -0.113000
     39 C39          4.4180    -1.9280     7.3890 ca         1 AA9      -0.082000
     40 C40          4.8070    -3.2070     7.0340 ca         1 AA9      -0.109000
     41 C41          5.4850    -3.4220     5.8480 ca         1 AA9      -0.082000
     42 C42          5.7710    -2.3620     5.0110 ca         1 AA9      -0.113000
     43 S43          6.5680     1.2770     5.0910 s6         1 AA9       0.951900
     44 C44          5.3310     2.5010     5.6030 c3         1 AA9      -0.003300
     45 O45          7.2510     0.7540     6.2230 o          1 AA9      -0.569800
     46 O46          7.2830     1.7380     3.9520 o          1 AA9      -0.569800
     47 H11C        -0.3610    -0.8840     0.5110 hc         1 AA9       0.009033
     48 H12C        -0.3610    -0.0000    -1.0210 hc         1 AA9       0.009033
     49 H13C        -0.3610     0.8850     0.5100 hc         1 AA9       0.009033
     50 H21C         1.8910     0.8850    -0.5110 h1         1 AA9       0.010700
     51 H22C         1.8910    -0.8850    -0.5110 h1         1 AA9       0.010700
     52 H3           1.3670    -0.0000     2.1420 hn         1 AA9       0.294800
     53 H5           3.1470     0.0000     3.7690 ha         1 AA9       0.113000
     54 H9           3.9310    -0.0060    -0.4390 ha         1 AA9       0.115000
     55 H7           7.1880     0.0040     2.3580 ha         1 AA9       0.161000
     56 H12          5.1980     0.0250    -1.7400 hn         1 AA9       0.178500
     57 H13          8.0050     0.5880    -2.3960 h1         1 AA9       0.063700
     58 H141         8.2010    -1.4440    -3.8470 hc         1 AA9       0.031700
     59 H142         6.6870    -2.0430    -3.1560 hc         1 AA9       0.031700
     60 H21          6.0930     1.5950    -3.6630 h1         1 AA9       0.005700
     61 H16          6.5700    -2.7720    -0.8420 ha         1 AA9       0.097500
     62 H20         10.2250    -1.3320    -2.5160 ha         1 AA9       0.097500
     63 H17          7.8100    -3.6850     1.0830 ha         1 AA9       0.096500
     64 H18         10.2580    -3.4180     1.2110 ha         1 AA9       0.098000
     65 H19         11.4660    -2.2430    -0.5900 ha         1 AA9       0.096500
     66 H22          4.6200     0.2930    -4.4400 ho         1 AA9       0.393000
     67 H231         8.3650     1.2870    -4.6750 h1         1 AA9       0.021700
     68 H232         7.8260    -0.2650    -5.3310 h1         1 AA9       0.021700
     69 H24          6.6010     2.3290    -5.8920 hn         1 AA9       0.277800
     70 H25          8.8650     1.6990    -6.8700 h1         1 AA9       0.018700
     71 H261         8.8400    -0.1790    -8.1140 hc         1 AA9       0.014033
     72 H262         7.1360    -0.4250    -7.7080 hc         1 AA9       0.014033
     73 H263         7.5780     0.5170    -9.1390 hc         1 AA9       0.014033
     74 H29          9.0720     2.5150    -9.4180 hn         1 AA9       0.175500
     75 H30          7.4650     4.9720    -9.4330 h1         1 AA9       0.058700
     76 H311         9.8610     5.0170   -10.0390 hc         1 AA9       0.020700
     77 H312         9.5360     3.9230   -11.3950 hc         1 AA9       0.020700
     78 H351         7.2530     2.9680   -11.7060 hc         1 AA9       0.020700
     79 H352         5.9560     3.3840   -10.5730 hc         1 AA9       0.020700
     80 H321         9.6250     6.2730   -12.1550 hc         1 AA9       0.016200
     81 H322         8.3270     6.6860   -11.0210 hc         1 AA9       0.016200
     82 H331         7.4310     6.3180   -13.2950 hc         1 AA9       0.014200
     83 H332         8.1160     4.6840   -13.2980 hc         1 AA9       0.014200
     84 H341         6.0450     5.7320   -11.3360 hc         1 AA9       0.016200
     85 H342         5.7220     4.6370   -12.6910 hc         1 AA9       0.016200
     86 H38          4.4000     0.1390     6.8380 ha         1 AA9       0.108000
     87 H42          6.3020    -2.5320     4.0820 ha         1 AA9       0.108000
     88 H39          3.8870    -1.7620     8.3180 ha         1 AA9       0.101500
     89 H40          4.5830    -4.0410     7.6870 ha         1 AA9       0.102000
     90 H41          5.7870    -4.4250     5.5730 ha         1 AA9       0.101500
     91 H441         4.3380     2.1030     5.4320 h1         1 AA9       0.066033
     92 H442         5.4560     2.7210     6.6560 h1         1 AA9       0.066033
     93 H443         5.4610     3.4090     5.0260 h1         1 AA9       0.066033
@<TRIPOS>BOND
     1     1     2 1   
     2     1    47 1   
     3     1    48 1   
     4     1    49 1   
     5     2     3 1   
     6     2    50 1   
     7     2    51 1   
     8     3     4 1   
     9     3    52 1   
    10     4     5 ar  
    11     4     9 ar  
    12     5     6 ar  
    13     5    53 1   
    14     6     7 ar  
    15     6    36 1   
    16     7     8 ar  
    17     7    55 1   
    18     8     9 ar  
    19     8    10 1   
    20     9    54 1   
    21    10    11 2   
    22    10    12 1   
    23    12    13 1   
    24    12    56 1   
    25    13    14 1   
    26    13    21 1   
    27    13    57 1   
    28    14    15 1   
    29    14    58 1   
    30    14    59 1   
    31    15    16 ar  
    32    15    20 ar  
    33    16    17 ar  
    34    16    61 1   
    35    17    18 ar  
    36    17    63 1   
    37    18    19 ar  
    38    18    64 1   
    39    19    20 ar  
    40    19    65 1   
    41    20    62 1   
    42    21    22 1   
    43    21    23 1   
    44    21    60 1   
    45    22    66 1   
    46    23    24 1   
    47    23    67 1   
    48    23    68 1   
    49    24    25 1   
    50    24    69 1   
    51    25    26 1   
    52    25    27 1   
    53    25    70 1   
    54    26    71 1   
    55    26    72 1   
    56    26    73 1   
    57    27    28 2   
    58    27    29 1   
    59    29    30 1   
    60    29    74 1   
    61    30    31 1   
    62    30    35 1   
    63    30    75 1   
    64    31    32 1   
    65    31    76 1   
    66    31    77 1   
    67    32    33 1   
    68    32    80 1   
    69    32    81 1   
    70    33    34 1   
    71    33    82 1   
    72    33    83 1   
    73    34    35 1   
    74    34    84 1   
    75    34    85 1   
    76    35    78 1   
    77    35    79 1   
    78    36    37 1   
    79    36    43 1   
    80    37    38 ar  
    81    37    42 ar  
    82    38    39 ar  
    83    38    86 1   
    84    39    40 ar  
    85    39    88 1   
    86    40    41 ar  
    87    40    89 1   
    88    41    42 ar  
    89    41    90 1   
    90    42    87 1   
    91    43    44 1   
    92    43    45 2   
    93    43    46 2   
    94    44    91 1   
    95    44    92 1   
    96    44    93 1   
@<TRIPOS>SUBSTRUCTURE
     1 AA9         1 TEMP              0 ****  ****    0 ROOT
