@<TRIPOS>MOLECULE
AAA
   40    41     1     0     0
SMALL
bcc


@<TRIPOS>ATOM
      1 C1           0.0000     0.0000     0.0000 ca         1 AAA      -0.262600
      2 C1A         -0.7390    -0.0000    -1.2660 c          1 AAA       0.659700
      3 C1B          0.0050     0.1280    -2.5720 c3         1 AAA      -0.087100
      4 O1B         -1.9480    -0.1030    -1.2640 o          1 AAA      -0.597100
      5 C2           1.4000     0.0000     0.0000 ca         1 AAA       0.012000
      6 C3           2.0860     0.0000     1.1930 ca         1 AAA      -0.144000
      7 C4           1.3980     0.0000     2.3980 ca         1 AAA       0.015700
      8 C4A          2.1630     0.0010     3.6950 c3         1 AAA       0.049200
      9 C5           0.0190     0.0000     2.4160 ca         1 AAA      -0.256000
     10 C6          -0.6950     0.0050     1.2240 ca         1 AAA       0.086600
     11 N7          -2.0810     0.0040     1.2400 nu         1 AAA      -0.524600
     12 C8          -2.7970     0.1640     2.5060 c3         1 AAA       0.137800
     13 C8A         -2.8330    -1.1560     3.2320 c          1 AAA       0.315100
     14 N8B         -2.4180    -2.2780     2.6130 nz         1 AAA       0.143600
     15 O8B         -3.2360    -1.2100     4.3740 o          1 AAA      -0.406100
     16 C9          -4.2060     0.6240     2.2320 ca         1 AAA      -0.106300
     17 C10         -4.7270     1.7040     2.9190 ca         1 AAA       0.043100
     18 Br1         -3.6730     2.6060     4.2040 br         1 AAA      -0.094600
     19 C11         -6.0190     2.1270     2.6670 ca         1 AAA      -0.048000
     20 C12         -6.7910     1.4690     1.7290 ca         1 AAA      -0.049000
     21 C13         -6.2710     0.3880     1.0410 ca         1 AAA      -0.048000
     22 C14         -4.9760    -0.0320     1.2900 ca         1 AAA       0.043100
     23 Br2         -4.2640    -1.5090     0.3480 br         1 AAA      -0.094600
     24 H1B1         0.6000     1.0330    -2.5610 hc         1 AAA       0.037033
     25 H1B2         0.6540    -0.7290    -2.7040 hc         1 AAA       0.037033
     26 H1B3        -0.7050     0.1730    -3.3890 hc         1 AAA       0.037033
     27 H2           1.9420    -0.0000    -0.9380 ha         1 AAA       0.122000
     28 H3           3.1690    -0.0000     1.1920 ha         1 AAA       0.129000
     29 H4A1         2.0250    -0.9490     4.1970 hc         1 AAA       0.020700
     30 H4A2         3.2170     0.1530     3.4930 hc         1 AAA       0.020700
     31 H4A3         1.7990     0.8010     4.3290 hc         1 AAA       0.020700
     32 H5          -0.5080     0.0020     3.3620 ha         1 AAA       0.109000
     33 HN7         -2.5910    -0.0630     0.3820 hn         1 AAA       0.397800
     34 H8          -2.2900     0.8990     3.1190 h1         1 AAA       0.108700
     35 HN81        -2.9740    -3.0520     2.9170 hn         1 AAA       0.256800
     36 HN82        -2.5140    -2.1670     1.6230 hn         1 AAA       0.256800
     37 H11         -6.4260     2.9740     3.2060 ha         1 AAA       0.136500
     38 H12         -7.8040     1.7990     1.5320 ha         1 AAA       0.130000
     39 H13         -6.8760    -0.1270     0.3040 ha         1 AAA       0.136500
     40 H8B3        -1.4560    -2.4450     2.8340 hn         1 AAA       0.256800
@<TRIPOS>BOND
     1     1     2 1   
     2     1     5 ar  
     3     1    10 ar  
     4     2     3 1   
     5     2     4 2   
     6     3    24 1   
     7     3    25 1   
     8     3    26 1   
     9     5     6 ar  
    10     5    27 1   
    11     6     7 ar  
    12     6    28 1   
    13     7     8 1   
    14     7     9 ar  
    15     8    29 1   
    16     8    30 1   
    17     8    31 1   
    18     9    10 ar  
    19     9    32 1   
    20    10    11 1   
    21    11    12 1   
    22    11    33 1   
    23    12    13 1   
    24    12    16 1   
    25    12    34 1   
    26    13    14 1   
    27    13    15 2   
    28    14    35 1   
    29    14    36 1   
    30    14    40 1   
    31    16    17 ar  
    32    16    22 ar  
    33    17    18 1   
    34    17    19 ar  
    35    19    20 ar  
    36    19    37 1   
    37    20    21 ar  
    38    20    38 1   
    39    21    22 ar  
    40    21    39 1   
    41    22    23 1   
@<TRIPOS>SUBSTRUCTURE
     1 AAA         1 TEMP              0 ****  ****    0 ROOT
