@<TRIPOS>MOLECULE
molecule
   14    13     1     0     0
SMALL
bcc


@<TRIPOS>ATOM
      1 C1           0.0000     0.0000     0.0000 c          1 AAC       0.883600
      2 C2           1.5070     0.0000     0.0000 c3         1 AAC      -0.004000
      3 C3           3.3210    -0.0000     1.6260 c          1 AAC       0.639100
      4 C4           3.8240     0.0000     3.0450 c3         1 AAC      -0.175100
      5 N1           1.9960     0.0000     1.3800 ns         1 AAC      -0.551900
      6 O1          -0.6720     0.0000    -1.1610 o          1 AAC      -0.848300
      7 O2          -0.6030     0.0000     1.0470 o          1 AAC      -0.848300
      8 O3           4.1080    -0.0000     0.7040 o          1 AAC      -0.654100
      9 HC21         1.8680    -0.8840    -0.5110 h1         1 AAC       0.044700
     10 HC22         1.8680     0.8840    -0.5110 h1         1 AAC       0.044700
     11 HC41         4.9080    -0.0000     3.0440 hc         1 AAC       0.045700
     12 HC42         3.4640    -0.8850     3.5560 hc         1 AAC       0.045700
     13 HC43         3.4640     0.8850     3.5560 hc         1 AAC       0.045700
     14 HN1          1.3450     0.0000     2.1410 hn         1 AAC       0.330500
@<TRIPOS>BOND
     1     1     2 1
     2     1     6 1
     3     1     7 1
     4     2     5 1
     5     2     9 1
     6     2    10 1
     7     3     4 1
     8     3     5 1
     9     3     8 2
    10     4    11 1
    11     4    12 1
    12     4    13 1
    13     5    14 1
@<TRIPOS>SUBSTRUCTURE
     1 AAC         1 TEMP              0 ****  ****    0 ROOT
