@<TRIPOS>MOLECULE
molecule
   12    11     1     0     0
SMALL
bcc


@<TRIPOS>ATOM
      1 O1           0.0000     0.0000     0.0000 o          1 AAE      -0.835800
      2 C2           1.3430     0.0000     0.0000 c          1 AAE       0.888600
      3 O3           1.9460     0.0000     1.0450 o          1 AAE      -0.835800
      4 C4           2.0940    -0.0000    -1.3060 c3         1 AAE      -0.284400
      5 C5           3.5760     0.0000    -1.0310 c          1 AAE       0.544100
      6 O8           3.9780     0.0000     0.1060 o          1 AAE      -0.477100
      7 C9           4.5550    -0.0000    -2.1770 c3         1 AAE      -0.209100
      8 H41          1.8310    -0.8850    -1.8730 hc         1 AAE       0.047700
      9 H42          1.8310     0.8850    -1.8730 hc         1 AAE       0.047700
     10 H91          4.4010     0.8850    -2.7830 hc         1 AAE       0.037700
     11 H92          4.4010    -0.8850    -2.7830 hc         1 AAE       0.037700
     12 H93          5.5660     0.0000    -1.7880 hc         1 AAE       0.037700
@<TRIPOS>BOND
     1     1     2 1
     2     2     3 1
     3     2     4 1
     4     4     5 1
     5     4     8 1
     6     4     9 1
     7     5     6 2
     8     5     7 1
     9     7    10 1
    10     7    11 1
    11     7    12 1
@<TRIPOS>SUBSTRUCTURE
     1 AAE         1 TEMP              0 ****  ****    0 ROOT
