@<TRIPOS>MOLECULE
AAE
   12    11     1     0     0
SMALL
bcc


@<TRIPOS>ATOM
      1 O1          0.6950   -0.5570    0.4530 o         1 AAE     -0.833300
      2 C2          1.6530   -0.7230   -0.3490 c         1 AAE      0.925600
      3 O3          2.2810   -1.8100   -0.4980 o         1 AAE     -0.833300
      4 C4          2.0340    0.4840   -1.2450 c3        1 AAE     -0.311400
      5 C5          3.4870    0.8110   -1.2090 c         1 AAE      0.598100
      6 O8          3.9300    1.8670   -0.7270 o         1 AAE     -0.613100
      7 C9          4.4040   -0.2110   -1.8040 c3        1 AAE     -0.214100
      8 H41         1.4310    1.3690   -0.9210 hc        1 AAE      0.050700
      9 H42         1.7480    0.2100   -2.2920 hc        1 AAE      0.050700
     10 H91         5.4730    0.0530   -1.6320 hc        1 AAE      0.060700
     11 H92         4.2170   -0.2860   -2.9020 hc        1 AAE      0.060700
     12 H93         4.1700   -1.2060   -1.3370 hc        1 AAE      0.060700
@<TRIPOS>BOND
     1    1    2 1   
     2    2    3 1   
     3    2    4 1   
     4    4    5 1   
     5    4    8 1   
     6    4    9 1   
     7    5    6 2   
     8    5    7 1   
     9    7   10 1   
    10    7   11 1   
    11    7   12 1   
@<TRIPOS>SUBSTRUCTURE
     1 AAE         1 TEMP              0 ****  ****    0 ROOT
