@<TRIPOS>MOLECULE
molecule
   59    61     1     0     0
SMALL
bcc


@<TRIPOS>ATOM
      1 C1           0.0000     0.0000     0.0000 c          1 AAF       0.684100
      2 C2           1.5070     0.0000     0.0000 c3         1 AAF       0.084500
      3 C4           2.0540     0.0000     1.4500 c3         1 AAF      -0.073400
      4 C5           3.4640     0.6110     1.2880 c3         1 AAF      -0.081400
      5 C6           3.4090     1.4040    -0.0310 c3         1 AAF       0.131500
      6 C9           3.7230     2.8790     0.2330 c3         1 AAF       0.150000
      7 O3          -0.6060     1.0350    -0.1830 o          1 AAF      -0.572100
      8 N7           2.0370     1.2690    -0.5660 n7         1 AAF      -0.765200
      9 N8          -0.6740    -1.1490     0.2030 n          1 AAF      -0.499800
     10 C10         -2.1320    -1.2750     0.3400 c3         1 AAF       0.092700
     11 C11         -2.4480    -2.7730     0.5270 c3         1 AAF      -0.119400
     12 C12         -1.1990    -3.4710    -0.0720 c3         1 AAF      -0.081400
     13 C13         -0.0700    -2.4890     0.3300 c3         1 AAF       0.091000
     14 C14         -2.6210    -0.4840     1.5550 c3         1 AAF       0.070800
     15 N15          3.5430     3.6450    -1.0020 ns         1 AAF      -0.598900
     16 C16          3.7650     4.9750    -1.0090 c          1 AAF       0.783100
     17 O17          4.1140     5.5380     0.0100 o          1 AAF      -0.637100
     18 N18         -4.0860    -0.5570     1.6310 nz         1 AAF      -0.806600
     19 N19          3.5980     5.6800    -2.1460 ns         1 AAF      -0.491100
     20 C20          3.9280     7.0340    -2.1790 ca         1 AAF       0.100600
     21 C21          3.1890     7.9080    -2.9720 ca         1 AAF      -0.166000
     22 C22          3.5080     9.2460    -3.0030 ca         1 AAF      -0.052500
     23 C23          4.5820     9.7260    -2.2480 ca         1 AAF      -0.150600
     24 C24          5.3220     8.8440    -1.4540 ca         1 AAF      -0.052500
     25 C25          4.9940     7.5080    -1.4220 ca         1 AAF      -0.166000
     26 C26          4.9300    11.1590    -2.2840 c          1 AAF       0.654700
     27 O27          5.8610    11.5740    -1.6230 o          1 AAF      -0.549000
     28 O28          4.2160    12.0060    -3.0500 os         1 AAF      -0.442900
     29 C29          4.5590    13.4170    -3.0850 c3         1 AAF       0.148700
     30 H2           1.8930    -0.8500    -0.5500 h1         1 AAF       0.048700
     31 H41          1.4400     0.6220     2.0900 hc         1 AAF       0.057200
     32 H42          2.1180    -1.0110     1.8340 hc         1 AAF       0.057200
     33 H51          3.6820     1.2760     2.1150 hc         1 AAF       0.066200
     34 H52          4.2070    -0.1740     1.2220 hc         1 AAF       0.066200
     35 H6           4.1200     0.9920    -0.7370 h1         1 AAF       0.042700
     36 H91          4.7480     2.9740     0.5710 h1         1 AAF       0.064700
     37 H92          3.0540     3.2590     0.9950 h1         1 AAF       0.064700
     38 HN7          2.0730     1.2000    -1.5640 hn         1 AAF       0.357800
     39 H10         -2.6160    -0.9100    -0.5590 h1         1 AAF       0.078700
     40 H111        -2.5520    -3.0130     1.5780 hc         1 AAF       0.057200
     41 H112        -3.3390    -3.0470    -0.0250 hc         1 AAF       0.057200
     42 H121        -1.0440    -4.4420     0.3830 hc         1 AAF       0.079700
     43 H122        -1.2790    -3.5470    -1.1500 hc         1 AAF       0.079700
     44 H131         0.2360    -2.6670     1.3530 h1         1 AAF       0.065200
     45 H132         0.7710    -2.5870    -0.3460 h1         1 AAF       0.065200
     46 H141        -2.1920    -0.9050     2.4560 hx         1 AAF       0.125700
     47 H142        -2.3160     0.5510     1.4600 hx         1 AAF       0.125700
     48 HN15         3.2910     3.1760    -1.8500 hn         1 AAF       0.305500
     49 H181        -4.4680    -0.5730     0.7060 hn         1 AAF       0.457133
     50 H182        -4.4350     0.2420     2.1230 hn         1 AAF       0.457133
     51 HN19         3.2750     5.2230    -2.9750 hn         1 AAF       0.318500
     52 H21          2.3570     7.5360    -3.5570 ha         1 AAF       0.150000
     53 H22          2.9330     9.9260    -3.6200 ha         1 AAF       0.157000
     54 H24          6.1540     9.2120    -0.8660 ha         1 AAF       0.157000
     55 H25          5.5670     6.8250    -0.8070 ha         1 AAF       0.150000
     56 H291         4.4780    13.8330    -2.0890 h1         1 AAF       0.049700
     57 H292         5.5750    13.5330    -3.4440 h1         1 AAF       0.049700
     58 H293         3.8800    13.9370    -3.7500 h1         1 AAF       0.049700
     59 H183        -4.3540    -1.3890     2.1200 hn         1 AAF       0.457133
@<TRIPOS>BOND
     1     1     2 1
     2     1     7 2
     3     1     9 1
     4     2     3 1
     5     2     8 1
     6     2    30 1
     7     3     4 1
     8     3    31 1
     9     3    32 1
    10     4     5 1
    11     4    33 1
    12     4    34 1
    13     5     6 1
    14     5     8 1
    15     5    35 1
    16     6    15 1
    17     6    36 1
    18     6    37 1
    19     8    38 1
    20     9    10 1
    21     9    13 1
    22    10    11 1
    23    10    14 1
    24    10    39 1
    25    11    12 1
    26    11    40 1
    27    11    41 1
    28    12    13 1
    29    12    42 1
    30    12    43 1
    31    13    44 1
    32    13    45 1
    33    14    18 1
    34    14    46 1
    35    14    47 1
    36    15    16 1
    37    15    48 1
    38    16    17 2
    39    16    19 1
    40    18    49 1
    41    18    50 1
    42    19    20 1
    43    19    51 1
    44    20    21 ar
    45    20    25 ar
    46    21    22 ar
    47    21    52 1
    48    22    23 ar
    49    22    53 1
    50    23    24 ar
    51    23    26 1
    52    24    25 ar
    53    24    54 1
    54    25    55 1
    55    26    27 2
    56    26    28 1
    57    28    29 1
    58    29    56 1
    59    29    57 1
    60    29    58 1
    61    59    18 1
@<TRIPOS>SUBSTRUCTURE
     1 AAF         1 TEMP              0 ****  ****    0 ROOT
