@<TRIPOS>MOLECULE
AAG
   31    30     1     0     0
SMALL
bcc


@<TRIPOS>ATOM
      1 N1           0.0000     0.0000     0.0000 ns         1 AAG      -0.145900
      2 C1           1.4630     0.0000     0.0000 c3         1 AAG      -0.103300
      3 C2           1.9740     0.0000     1.4410 c3         1 AAG      -0.013400
      4 C4           1.4630     1.2480     2.1630 c3         1 AAG      -0.045400
      5 C5           1.9740     1.2470     3.6060 c3         1 AAG       0.153800
      6 N2           1.4870     2.4420     4.2970 nu         1 AAG      -0.471200
      7 C6           1.8190     2.6590     5.6130 c2         1 AAG       0.238100
      8 N3           1.3600     3.7820     6.2630 nz         1 AAG       0.196400
      9 N4           2.5690     1.8020     6.2450 n2         1 AAG      -0.652100
     10 C3           1.9660    -1.2290    -0.7120 c          1 AAG       0.967600
     11 O1           1.2420    -2.3580    -0.6930 o          1 AAG      -0.870800
     12 O2           3.0220    -1.1990    -1.2980 o          1 AAG      -0.870800
     13 C8          -0.6760     0.5830    -1.0100 c          1 AAG       0.560100
     14 C9          -2.1810     0.5830    -1.0100 c3         1 AAG      -0.070100
     15 O4          -0.0690     1.1090    -1.9190 o          1 AAG      -0.656100
     16 HN1         -0.5000    -0.4540     0.7390 hn         1 AAG       0.155500
     17 HC1          1.8240     0.8850    -0.5100 h1         1 AAG       0.057700
     18 HC21         3.0570     0.0010     1.4410 hc         1 AAG       0.031700
     19 HC22         1.6140    -0.8850     1.9520 hc         1 AAG       0.031700
     20 HC41         1.8230     2.1330     1.6530 hc         1 AAG       0.023700
     21 HC42         0.3800     1.2460     2.1640 hc         1 AAG       0.023700
     22 HC51         3.0580     1.2480     3.6050 h1         1 AAG       0.034200
     23 HC52         1.6140     0.3620     4.1160 h1         1 AAG       0.034200
     24 HN2          0.9160     3.1040     3.8100 hn         1 AAG       0.304800
     25 HN31         1.6930     4.6000     5.7920 hn         1 AAG       0.218467
     26 HN32         0.3600     3.7810     6.2630 hn         1 AAG       0.218467
     27 HN4          2.9030     0.9850     5.7750 hn         1 AAG       0.392400
     28 HC91        -2.5430     1.2520    -0.2370 hc         1 AAG       0.012700
     29 HC92        -2.5430     0.9180    -1.9750 hc         1 AAG       0.012700
     30 HC93        -2.5430    -0.4200    -0.8170 hc         1 AAG       0.012700
     31 H33          1.7040     3.7870     7.2030 hn         1 AAG       0.218467
@<TRIPOS>BOND
     1     1     2 1   
     2     1    13 1   
     3     1    16 1   
     4     2     3 1   
     5     2    10 1   
     6     2    17 1   
     7     3     4 1   
     8     3    18 1   
     9     3    19 1   
    10     4     5 1   
    11     4    20 1   
    12     4    21 1   
    13     5     6 1   
    14     5    22 1   
    15     5    23 1   
    16     6     7 1   
    17     6    24 1   
    18     7     8 1   
    19     7     9 2   
    20     8    25 1   
    21     8    26 1   
    22     8    31 1   
    23     9    27 1   
    24    10    11 1   
    25    10    12 1   
    26    13    14 1   
    27    13    15 2   
    28    14    28 1   
    29    14    29 1   
    30    14    30 1   
@<TRIPOS>SUBSTRUCTURE
     1 AAG         1 TEMP              0 ****  ****    0 ROOT
