@<TRIPOS>MOLECULE
molecule
   44    46     1     0     0
SMALL
bcc


@<TRIPOS>ATOM
      1 C1           0.0000     0.0000     0.0000 cc         1 AAI       0.472800
      2 N2           1.3620     0.0000     0.0000 na         1 AAI      -0.245300
      3 C3           1.7730     0.0000     1.3120 ca         1 AAI      -0.027200
      4 C4           0.6020    -0.0010     2.0880 ca         1 AAI       0.099400
      5 N5          -0.4450    -0.0010     1.2230 nd         1 AAI      -0.579100
      6 C6           3.0250     0.0010     1.9420 ca         1 AAI      -0.200600
      7 C7           3.0940     0.0000     3.3340 ca         1 AAI      -0.115000
      8 C8           1.9350    -0.0000     4.0900 ca         1 AAI      -0.159000
      9 C9           0.6980    -0.0010     3.4810 ca         1 AAI       0.023000
     10 C10          4.2620     0.0010     1.1360 c          1 AAI       0.512700
     11 N11          5.4640     0.0010     1.7470 nz         1 AAI      -0.675400
     12 O12          4.1960     0.0010    -0.0780 o          1 AAI      -0.462100
     13 C13         -0.8640     0.0060    -1.2340 c3         1 AAI      -0.085000
     14 C14         -0.1830     0.8270    -2.3320 c3         1 AAI      -0.078900
     15 C15         -1.0360     0.7780    -3.6020 c3         1 AAI       0.164300
     16 N16         -1.1920    -0.6160    -4.0350 n3         1 AAI      -0.737600
     17 C17         -1.8860    -1.4120    -3.0160 c3         1 AAI       0.164300
     18 C18         -1.0600    -1.4300    -1.7290 c3         1 AAI      -0.078900
     19 C19         -1.8880    -0.6910    -5.3270 c3         1 AAI       0.162800
     20 C20         -1.8140    -2.1210    -5.8640 c3         1 AAI      -0.084400
     21 C21         -2.5390    -2.1990    -7.2090 c3         1 AAI      -0.093100
     22 H2           1.9540     0.0010    -0.8070 hn         1 AAI       0.331700
     23 H7           3.9340     0.0050     4.0180 ha         1 AAI       0.136000
     24 H8           2.0210     0.0030     5.1700 ha         1 AAI       0.162000
     25 H9          -0.1880     0.0100     4.1060 ha         1 AAI       0.174000
     26 H111         5.5500    -0.8180     2.3150 hn         1 AAI       0.476133
     27 H112         6.1890     0.0070     1.0570 hn         1 AAI       0.476133
     28 H13         -1.8290     0.4420    -1.0050 hc         1 AAI       0.100700
     29 H141         0.7960     0.4110    -2.5390 hc         1 AAI       0.052450
     30 H142        -0.0830     1.8550    -2.0040 hc         1 AAI       0.052450
     31 H151        -0.5470     1.3450    -4.3850 h1         1 AAI       0.046700
     32 H152        -2.0110     1.2030    -3.3970 h1         1 AAI       0.046700
     33 H171        -2.0120    -2.4260    -3.3760 h1         1 AAI       0.046700
     34 H172        -2.8560    -0.9730    -2.8150 h1         1 AAI       0.046700
     35 H181        -0.0930    -1.8780    -1.9270 hc         1 AAI       0.052450
     36 H182        -1.5820    -2.0040    -0.9730 hc         1 AAI       0.052450
     37 H191        -1.4170    -0.0160    -6.0310 h1         1 AAI       0.039700
     38 H192        -2.9260    -0.4080    -5.1950 h1         1 AAI       0.039700
     39 H201        -0.7770    -2.4040    -5.9950 hc         1 AAI       0.047200
     40 H202        -2.2860    -2.7960    -5.1600 hc         1 AAI       0.047200
     41 H211        -2.4630    -3.2060    -7.6020 hc         1 AAI       0.038367
     42 H212        -3.5830    -1.9430    -7.0720 hc         1 AAI       0.038367
     43 H213        -2.0840    -1.5050    -7.9040 hc         1 AAI       0.038367
     44 H113         5.5390     0.8080     2.3340 hn         1 AAI       0.476133
@<TRIPOS>BOND
     1    12    10 2
     2    10    11 1
     3    10     6 1
     4     7     6 ar
     5     7     8 ar
     6     6     3 ar
     7     8     9 ar
     8     3     2 1
     9     3     4 ar
    10     2     1 1
    11     9     4 ar
    12     4     5 1
    13     1     5 2
    14     1    13 1
    15    13    18 1
    16    13    14 1
    17    18    17 1
    18    14    15 1
    19    17    16 1
    20    15    16 1
    21    16    19 1
    22    20    19 1
    23    20    21 1
    24     2    22 1
    25     7    23 1
    26     8    24 1
    27     9    25 1
    28    11    26 1
    29    11    27 1
    30    13    28 1
    31    14    29 1
    32    14    30 1
    33    15    31 1
    34    15    32 1
    35    17    33 1
    36    17    34 1
    37    18    35 1
    38    18    36 1
    39    19    37 1
    40    19    38 1
    41    20    39 1
    42    20    40 1
    43    21    41 1
    44    21    42 1
    45    21    43 1
    46    44    11 1
@<TRIPOS>SUBSTRUCTURE
     1 AAI         1 TEMP              0 ****  ****    0 ROOT
