@<TRIPOS>MOLECULE
AAI
   44    46     1     0     0
SMALL
bcc


@<TRIPOS>ATOM
      1 C1           0.0000     0.0000     0.0000 cc         1 AAI       0.250800
      2 N2           1.3620     0.0000     0.0000 na         1 AAI       0.293700
      3 C3           1.7730     0.0000     1.3120 ca         1 AAI      -0.206200
      4 C4           0.6020    -0.0010     2.0880 ca         1 AAI       0.054400
      5 N5          -0.4450    -0.0010     1.2230 nd         1 AAI      -0.480100
      6 C6           3.0250     0.0010     1.9420 ca         1 AAI      -0.205600
      7 C7           3.0940     0.0000     3.3340 ca         1 AAI      -0.081000
      8 C8           1.9350    -0.0000     4.0900 ca         1 AAI      -0.142000
      9 C9           0.6980    -0.0010     3.4810 ca         1 AAI       0.085000
     10 C10          4.2620     0.0010     1.1360 c          1 AAI       0.361700
     11 N11          5.4640     0.0010     1.7470 nz         1 AAI       0.205600
     12 O12          4.1960     0.0010    -0.0780 o          1 AAI      -0.487100
     13 C13         -0.8640     0.0060    -1.2340 c3         1 AAI      -0.056000
     14 C14         -0.1830     0.8270    -2.3320 c3         1 AAI      -0.026900
     15 C15         -1.0360     0.7780    -3.6020 c3         1 AAI       0.154300
     16 N16         -1.1920    -0.6160    -4.0350 n3         1 AAI      -0.547600
     17 C17         -1.8860    -1.4120    -3.0160 c3         1 AAI       0.154300
     18 C18         -1.0600    -1.4300    -1.7290 c3         1 AAI      -0.026900
     19 C19         -1.8880    -0.6910    -5.3270 c3         1 AAI       0.153800
     20 C20         -1.8140    -2.1210    -5.8640 c3         1 AAI      -0.036400
     21 C21         -2.5390    -2.1990    -7.2090 c3         1 AAI       0.008900
     22 H2           1.9540     0.0010    -0.8070 hn         1 AAI       0.160700
     23 H7           3.9340     0.0050     4.0180 ha         1 AAI       0.108000
     24 H8           2.0210     0.0030     5.1700 ha         1 AAI       0.130000
     25 H9          -0.1880     0.0100     4.1060 ha         1 AAI       0.129000
     26 H111         5.5500    -0.8180     2.3150 hn         1 AAI       0.244800
     27 H112         6.1890     0.0070     1.0570 hn         1 AAI       0.244800
     28 H13         -1.8290     0.4420    -1.0050 hc         1 AAI       0.065700
     29 H141         0.7960     0.4110    -2.5390 hc         1 AAI       0.020700
     30 H142        -0.0830     1.8550    -2.0040 hc         1 AAI       0.020700
     31 H151        -0.5470     1.3450    -4.3850 h1         1 AAI       0.020450
     32 H152        -2.0110     1.2030    -3.3970 h1         1 AAI       0.020450
     33 H171        -2.0120    -2.4260    -3.3760 h1         1 AAI       0.020450
     34 H172        -2.8560    -0.9730    -2.8150 h1         1 AAI       0.020450
     35 H181        -0.0930    -1.8780    -1.9270 hc         1 AAI       0.020700
     36 H182        -1.5820    -2.0040    -0.9730 hc         1 AAI       0.020700
     37 H191        -1.4170    -0.0160    -6.0310 h1         1 AAI       0.014200
     38 H192        -2.9260    -0.4080    -5.1950 h1         1 AAI       0.014200
     39 H201        -0.7770    -2.4040    -5.9950 hc         1 AAI       0.019200
     40 H202        -2.2860    -2.7960    -5.1600 hc         1 AAI       0.019200
     41 H211        -2.4630    -3.2060    -7.6020 hc         1 AAI       0.004367
     42 H212        -3.5830    -1.9430    -7.0720 hc         1 AAI       0.004367
     43 H213        -2.0840    -1.5050    -7.9040 hc         1 AAI       0.004367
     44 H113         5.5390     0.8080     2.3340 hn         1 AAI       0.244800
@<TRIPOS>BOND
     1     1     2 1   
     2     1     5 2   
     3     1    13 1   
     4     2     3 1   
     5     2    22 1   
     6     3     4 ar  
     7     3     6 ar  
     8     4     5 1   
     9     4     9 ar  
    10     6     7 ar  
    11     6    10 1   
    12     7     8 ar  
    13     7    23 1   
    14     8     9 ar  
    15     8    24 1   
    16     9    25 1   
    17    10    11 1   
    18    10    12 2   
    19    11    26 1   
    20    11    27 1   
    21    11    44 1   
    22    13    14 1   
    23    13    18 1   
    24    13    28 1   
    25    14    15 1   
    26    14    29 1   
    27    14    30 1   
    28    15    16 1   
    29    15    31 1   
    30    15    32 1   
    31    16    17 1   
    32    16    19 1   
    33    17    18 1   
    34    17    33 1   
    35    17    34 1   
    36    18    35 1   
    37    18    36 1   
    38    19    20 1   
    39    19    37 1   
    40    19    38 1   
    41    20    21 1   
    42    20    39 1   
    43    20    40 1   
    44    21    41 1   
    45    21    42 1   
    46    21    43 1   
@<TRIPOS>SUBSTRUCTURE
     1 AAI         1 TEMP              0 ****  ****    0 ROOT
