@<TRIPOS>MOLECULE
molecule
   43    44     1     0     0
SMALL
bcc


@<TRIPOS>ATOM
      1 C12          0.0000     0.0000     0.0000 ca         1 AAK      -0.139000
      2 C11          1.3860     0.0000     0.0000 ca         1 AAK       0.034600
      3 O2           3.5810     0.7370     3.2970 o          1 AAK      -0.589100
      4 O1           2.1880    -0.4210    -3.5050 os         1 AAK      -0.438900
      5 C7           4.1710     0.3340     2.3180 c          1 AAK       0.664100
      6 C8           5.6720     0.2030     2.3430 c3         1 AAK      -0.159400
      7 C9           6.1890     0.5210     3.7470 c3         1 AAK      -0.078100
      8 N1           3.4840     0.0010     1.2070 n          1 AAK      -0.381000
      9 C6           4.1910    -0.3650    -0.0290 c3         1 AAK       0.079000
     10 C5           3.5180     0.3620    -1.2020 c3         1 AAK       0.089000
     11 C10          2.0820     0.0000     1.2090 ca         1 AAK       0.029600
     12 C15          1.3840     0.0000     2.4060 ca         1 AAK      -0.132000
     13 C14          0.0010     0.0010     2.3980 ca         1 AAK      -0.131000
     14 C13         -0.6890     0.0070     1.1990 ca         1 AAK      -0.133000
     15 N            2.0940    -0.0030    -1.2120 n          1 AAK      -0.364000
     16 C            1.4790    -0.3360    -2.3640 c          1 AAK       0.763100
     17 O            0.2840    -0.5580    -2.3740 o          1 AAK      -0.601000
     18 C1           1.4610    -0.7840    -4.7090 c3         1 AAK       0.176800
     19 C4           0.8180    -2.1590    -4.5210 c3         1 AAK      -0.106433
     20 C3           0.3710     0.2560    -4.9790 c3         1 AAK      -0.106433
     21 C2           2.4270    -0.8300    -5.8950 c3         1 AAK      -0.106433
     22 H1          -0.5430     0.0040    -0.9380 ha         1 AAK       0.195000
     23 H2           5.9510    -0.8090     2.0760 hc         1 AAK       0.059700
     24 H3           6.1070     0.8960     1.6330 hc         1 AAK       0.059700
     25 H4           7.2680     0.4270     3.7640 hc         1 AAK       0.045700
     26 H5           5.7550    -0.1730     4.4570 hc         1 AAK       0.045700
     27 H6           5.9100     1.5330     4.0140 hc         1 AAK       0.045700
     28 H7           5.2280    -0.0610     0.0410 h1         1 AAK       0.063200
     29 H8           4.1280    -1.4360    -0.1810 h1         1 AAK       0.063200
     30 H9           3.6080     1.4320    -1.0530 h1         1 AAK       0.073200
     31 H10          3.9740     0.0350    -2.1290 h1         1 AAK       0.073200
     32 H11          1.9210    -0.0040     3.3470 ha         1 AAK       0.184000
     33 H12         -0.5440     0.0070     3.3340 ha         1 AAK       0.132000
     34 H13         -1.7720     0.0080     1.1990 ha         1 AAK       0.132000
     35 H14          0.6270    -2.6040    -5.4900 hc         1 AAK       0.051033
     36 H15          1.4890    -2.7970    -3.9570 hc         1 AAK       0.051033
     37 H16         -0.1150    -2.0510    -3.9820 hc         1 AAK       0.051033
     38 H17          0.7450     1.2430    -4.7340 hc         1 AAK       0.051033
     39 H18          0.0940     0.2250    -6.0260 hc         1 AAK       0.051033
     40 H19         -0.4970     0.0360    -4.3700 hc         1 AAK       0.051033
     41 H20          2.8830     0.1430    -6.0280 hc         1 AAK       0.051033
     42 H21          1.8840    -1.1000    -6.7930 hc         1 AAK       0.051033
     43 H22          3.1980    -1.5670    -5.7040 hc         1 AAK       0.051033
@<TRIPOS>BOND
     1     7     6 1
     2     6     5 1
     3     3     5 2
     4     5     8 1
     5    12    13 ar
     6    12    11 ar
     7    13    14 ar
     8     8    11 1
     9     8     9 1
    10    11     2 ar
    11     9    10 1
    12    14     1 ar
    13     2     1 ar
    14     2    15 1
    15    10    15 1
    16    15    16 1
    17    16    17 2
    18    16     4 1
    19     4    18 1
    20    19    18 1
    21    18    20 1
    22    18    21 1
    23     1    22 1
    24     6    23 1
    25     6    24 1
    26     7    25 1
    27     7    26 1
    28     7    27 1
    29     9    28 1
    30     9    29 1
    31    10    30 1
    32    10    31 1
    33    12    32 1
    34    13    33 1
    35    14    34 1
    36    19    35 1
    37    19    36 1
    38    19    37 1
    39    20    38 1
    40    20    39 1
    41    20    40 1
    42    21    41 1
    43    21    42 1
    44    21    43 1
@<TRIPOS>SUBSTRUCTURE
     1 AAK         1 TEMP              0 ****  ****    0 ROOT
