@<TRIPOS>MOLECULE
molecule
   35    37     1     0     0
SMALL
bcc


@<TRIPOS>ATOM
      1 C8A          0.0000     0.0000     0.0000 cc         1 AAM       0.519700
      2 N9A          1.3040     0.0000     0.0000 nd         1 AAM      -0.714700
      3 C4A          1.7590     0.0000     1.2670 ca         1 AAM       0.628300
      4 C5A          0.6320    -0.0060     2.1040 ca         1 AAM      -0.384800
      5 N7A         -0.4650     0.0000     1.2690 na         1 AAM      -0.121300
      6 N3A          2.9730    -0.0000     1.8260 nb         1 AAM      -0.737000
      7 C2A          3.1080    -0.0000     3.1340 ca         1 AAM       0.678900
      8 N1A          2.0720    -0.0000     3.9530 nb         1 AAM      -0.819000
      9 C6A          0.8270     0.0000     3.4860 ca         1 AAM       0.740200
     10 N6A         -0.2540     0.0000     4.3530 nv         1 AAM      -1.042500
     11 P           -6.1990     1.7830    -1.5600 p5         1 AAM       1.144900
     12 O1P         -6.7250     2.4470    -0.3460 o          1 AAM      -0.905500
     13 O2P         -6.0550     2.8670    -2.7420 o          1 AAM      -0.905500
     14 O3P         -7.2120     0.6210    -2.0170 o          1 AAM      -0.905500
     15 O6'         -4.7570     1.1440    -1.2390 os         1 AAM      -0.524200
     16 C5'         -4.9490     0.1970    -0.1880 c3         1 AAM       0.164400
     17 C4'         -3.6090    -0.4510     0.1670 c3         1 AAM       0.131100
     18 O5'         -2.6820     0.5410     0.6330 os         1 AAM      -0.357600
     19 C3'         -3.7820    -1.4320     1.3540 c3         1 AAM       0.084100
     20 O3'         -4.1680    -2.7300     0.8970 oh         1 AAM      -0.575800
     21 C2'         -2.3410    -1.4470     1.9360 c3         1 AAM       0.065100
     22 O2'         -1.5200    -2.3830     1.2360 oh         1 AAM      -0.571800
     23 C1'         -1.8710     0.0000     1.6800 c3         1 AAM       0.248800
     24 H8A         -0.6200     0.0040    -0.8880 h5         1 AAM       0.110800
     25 H2A          4.1060    -0.0010     3.5550 h5         1 AAM       0.042100
     26 HN61        -1.0710     0.5350     4.1340 hn         1 AAM       0.436800
     27 HN62        -0.2310    -0.5610     5.1820 hn         1 AAM       0.436800
     28 H5'1        -5.3500     0.7000     0.6840 h1         1 AAM       0.054700
     29 H5'2        -5.6440    -0.5680    -0.5140 h1         1 AAM       0.054700
     30 H4'         -3.1990    -0.9710    -0.6910 h1         1 AAM       0.075700
     31 H3'         -4.4870    -1.0410     2.0780 h1         1 AAM       0.060700
     32 HO3'        -4.7810    -3.1080     1.5050 ho         1 AAM       0.390000
     33 H2'         -2.3610    -1.6600     2.9980 h1         1 AAM       0.026700
     34 HO2'        -1.5130    -3.2040     1.7000 ho         1 AAM       0.399000
     35 H1'         -1.9960     0.5890     2.5800 h2         1 AAM       0.069700
@<TRIPOS>BOND
     1     1     2 2
     2     1     5 1
     3     1    24 1
     4     2     3 1
     5     3     4 ar
     6     3     6 ar
     7     4     5 1
     8     4     9 ar
     9     5    23 1
    10     6     7 ar
    11     7     8 ar
    12     7    25 1
    13     8     9 ar
    14     9    10 1
    15    10    26 1
    16    10    27 1
    17    11    12 1
    18    11    13 1
    19    11    14 1
    20    11    15 1
    21    15    16 1
    22    16    17 1
    23    16    28 1
    24    16    29 1
    25    17    18 1
    26    17    19 1
    27    17    30 1
    28    18    23 1
    29    19    20 1
    30    19    21 1
    31    19    31 1
    32    20    32 1
    33    21    22 1
    34    21    23 1
    35    21    33 1
    36    22    34 1
    37    23    35 1
@<TRIPOS>SUBSTRUCTURE
     1 AAM         1 TEMP              0 ****  ****    0 ROOT
