@<TRIPOS>MOLECULE
AAN
   19    19     1     0     0
SMALL
bcc


@<TRIPOS>ATOM
      1 C1           0.0000     0.0000     0.0000 c          1 AAN       0.983600
      2 C2           1.5070     0.0000     0.0000 c3         1 AAN      -0.115100
      3 C1'          2.0090     0.0000     1.4210 ca         1 AAN       0.099700
      4 C2'          2.2380    -1.2030     2.0700 ca         1 AAN      -0.141000
      5 C3'          2.6960    -1.2150     3.3660 ca         1 AAN       0.018500
      6 C4'          2.9330    -0.0000     4.0340 ca         1 AAN      -0.568200
      7 N4'          3.3820    -0.0010     5.3020 no         1 AAN       1.120200
      8 O3'          3.5850     1.0520     5.8760 o          1 AAN      -0.514500
      9 O4'          3.5840    -1.0560     5.8760 o          1 AAN      -0.514500
     10 C5'          2.6980     1.2130     3.3670 ca         1 AAN       0.018500
     11 C6'          2.2440     1.2010     2.0680 ca         1 AAN      -0.141000
     12 O1          -0.6040    -0.0000     1.0460 o          1 AAN      -0.883800
     13 O2          -0.6710     0.0000    -1.1620 o          1 AAN      -0.883800
     14 H21          1.8680    -0.8850    -0.5110 hc         1 AAN       0.021700
     15 H22          1.8680     0.8850    -0.5110 hc         1 AAN       0.021700
     16 H2'          2.0550    -2.1370     1.5530 ha         1 AAN       0.118000
     17 H3'          2.8740    -2.1570     3.8710 ha         1 AAN       0.121000
     18 H5'          2.8790     2.1550     3.8710 ha         1 AAN       0.121000
     19 H6'          2.0620     2.1360     1.5520 ha         1 AAN       0.118000
@<TRIPOS>BOND
     1     1     2 1   
     2     1    12 1   
     3     1    13 1   
     4     2     3 1   
     5     2    14 1   
     6     2    15 1   
     7     3     4 ar  
     8     3    11 ar  
     9     4     5 ar  
    10     4    16 1   
    11     5     6 ar  
    12     5    17 1   
    13     6     7 1   
    14     6    10 ar  
    15     7     8 1   
    16     7     9 1   
    17    10    11 ar  
    18    10    18 1   
    19    11    19 1   
@<TRIPOS>SUBSTRUCTURE
     1 AAN         1 TEMP              0 ****  ****    0 ROOT
