@<TRIPOS>MOLECULE
molecule
   40    41     1     0     0
SMALL
bcc


@<TRIPOS>ATOM
      1 C            0.0000     0.0000     0.0000 c          1 AAP       0.476100
      2 CA           1.5070     0.0000     0.0000 c3         1 AAP       0.216800
      3 O           -0.6060    -1.0070     0.2980 o          1 AAP      -0.408100
      4 N           -0.6740     1.1190    -0.3310 nz         1 AAP      -0.689400
      5 C1           2.0080     0.0000     1.4210 ca         1 AAP      -0.126300
      6 C2           1.8820     1.1340     2.2000 ca         1 AAP       0.047400
      7 C3           2.3410     1.1330     3.5050 ca         1 AAP      -0.097000
      8 C4           2.9300    -0.0030     4.0290 ca         1 AAP      -0.074000
      9 C5           3.0580    -1.1370     3.2510 ca         1 AAP      -0.097000
     10 C6           2.5920    -1.1380     1.9480 ca         1 AAP       0.047400
     11 Cl2          1.1430     2.5610     1.5420 cl         1 AAP      -0.078400
     12 Cl6          2.7520    -2.5640     0.9710 cl         1 AAP      -0.078400
     13 N'           1.9950     1.1960    -0.6890 nu         1 AAP      -0.856600
     14 C1'          2.1150     1.2000    -2.0700 ca         1 AAP       0.206600
     15 C2'          2.6860     2.3030    -2.7280 ca         1 AAP      -0.254600
     16 C3'          2.8010     2.2920    -4.1240 ca         1 AAP      -0.028000
     17 C4'          2.3520     1.2070    -4.8410 ca         1 AAP      -0.171000
     18 C5'          1.7850     0.1220    -4.1880 ca         1 AAP       0.010700
     19 C6'          1.6640     0.1160    -2.8140 ca         1 AAP      -0.258000
     20 C'           3.1630     3.4570    -1.9570 c          1 AAP       0.601700
     21 O'           2.9680     3.5090    -0.7610 o          1 AAP      -0.574100
     22 CM'          3.8940     4.5770    -2.6510 c3         1 AAP      -0.188100
     23 CM5          1.2990    -1.0600    -4.9870 c3         1 AAP      -0.061800
     24 HA           1.8690    -0.8840    -0.5110 h1         1 AAP       0.146700
     25 HN1         -1.5500     1.1370     0.1530 hn         1 AAP       0.477467
     26 HN2         -0.8380     1.1300    -1.3190 hn         1 AAP       0.477467
     27 H3           2.2420     2.0220     4.1160 ha         1 AAP       0.172000
     28 H4           3.2920    -0.0040     5.0500 ha         1 AAP       0.170000
     29 H5           3.5170    -2.0270     3.6640 ha         1 AAP       0.172000
     30 HN'          2.2820     1.9960    -0.1600 hn         1 AAP       0.505800
     31 H3'          3.2420     3.1380    -4.6390 ha         1 AAP       0.153000
     32 H4'          2.4420     1.2000    -5.9200 ha         1 AAP       0.155000
     33 H6'          1.2200    -0.7360    -2.3140 ha         1 AAP       0.125000
     34 HM'1         4.7520     4.1760    -3.1770 hc         1 AAP       0.074033
     35 HM'2         3.2300     5.0580    -3.3590 hc         1 AAP       0.074033
     36 HM'3         4.2260     5.3010    -1.9180 hc         1 AAP       0.074033
     37 HM51         1.5920    -0.9400    -6.0230 hc         1 AAP       0.058700
     38 HM52         1.7360    -1.9680    -4.5910 hc         1 AAP       0.058700
     39 HM53         0.2190    -1.1200    -4.9230 hc         1 AAP       0.058700
     40 HN3         -0.1270     1.9220    -0.0910 hn         1 AAP       0.477467
@<TRIPOS>BOND
     1     1     2 1
     2     1     3 2
     3     1     4 1
     4     2     5 1
     5     2    13 1
     6     2    24 1
     7     4    25 1
     8     4    26 1
     9     5     6 ar
    10     5    10 ar
    11     6     7 ar
    12     6    11 1
    13     7     8 ar
    14     7    27 1
    15     8     9 ar
    16     8    28 1
    17     9    10 ar
    18     9    29 1
    19    10    12 1
    20    13    14 1
    21    13    30 1
    22    14    15 ar
    23    14    19 ar
    24    15    16 ar
    25    15    20 1
    26    16    17 ar
    27    16    31 1
    28    17    18 ar
    29    17    32 1
    30    18    19 ar
    31    18    23 1
    32    19    33 1
    33    20    21 2
    34    20    22 1
    35    22    34 1
    36    22    35 1
    37    22    36 1
    38    23    37 1
    39    23    38 1
    40    23    39 1
    41    40     4 1
@<TRIPOS>SUBSTRUCTURE
     1 AAP         1 TEMP              0 ****  ****    0 ROOT
