@<TRIPOS>MOLECULE
AAP
   40    41     1     0     0
SMALL
bcc


@<TRIPOS>ATOM
      1 C            0.0000     0.0000     0.0000 c          1 AAP       0.316100
      2 CA           1.5070     0.0000     0.0000 c3         1 AAP       0.136800
      3 O           -0.6060    -1.0070     0.2980 o          1 AAP      -0.408100
      4 N           -0.6740     1.1190    -0.3310 nz         1 AAP       0.129600
      5 C1           2.0080     0.0000     1.4210 ca         1 AAP      -0.139300
      6 C2           1.8820     1.1340     2.2000 ca         1 AAP      -0.023600
      7 C3           2.3410     1.1330     3.5050 ca         1 AAP      -0.067000
      8 C4           2.9300    -0.0030     4.0290 ca         1 AAP      -0.039000
      9 C5           3.0580    -1.1370     3.2510 ca         1 AAP      -0.067000
     10 C6           2.5920    -1.1380     1.9480 ca         1 AAP      -0.023600
     11 Cl2          1.1430     2.5610     1.5420 cl         1 AAP       0.017100
     12 Cl6          2.7520    -2.5640     0.9710 cl         1 AAP       0.017100
     13 N'           1.9950     1.1960    -0.6890 nu         1 AAP      -0.541600
     14 C1'          2.1150     1.2000    -2.0700 ca         1 AAP       0.092600
     15 C2'          2.6860     2.3030    -2.7280 ca         1 AAP      -0.266600
     16 C3'          2.8010     2.2920    -4.1240 ca         1 AAP       0.009000
     17 C4'          2.3520     1.2070    -4.8410 ca         1 AAP      -0.143000
     18 C5'          1.7850     0.1220    -4.1880 ca         1 AAP       0.015700
     19 C6'          1.6640     0.1160    -2.8140 ca         1 AAP      -0.245000
     20 C'           3.1630     3.4570    -1.9570 c          1 AAP       0.665700
     21 O'           2.9680     3.5090    -0.7610 o          1 AAP      -0.607100
     22 CM'          3.8940     4.5770    -2.6510 c3         1 AAP      -0.088100
     23 CM5          1.2990    -1.0600    -4.9870 c3         1 AAP       0.049200
     24 HA           1.8690    -0.8840    -0.5110 h1         1 AAP       0.108700
     25 HN1         -1.5500     1.1370     0.1530 hn         1 AAP       0.258133
     26 HN2         -0.8380     1.1300    -1.3190 hn         1 AAP       0.258133
     27 H3           2.2420     2.0220     4.1160 ha         1 AAP       0.135000
     28 H4           3.2920    -0.0040     5.0500 ha         1 AAP       0.129000
     29 H5           3.5170    -2.0270     3.6640 ha         1 AAP       0.135000
     30 HN'          2.2820     1.9960    -0.1600 hn         1 AAP       0.396800
     31 H3'          3.2420     3.1380    -4.6390 ha         1 AAP       0.121000
     32 H4'          2.4420     1.2000    -5.9200 ha         1 AAP       0.129000
     33 H6'          1.2200    -0.7360    -2.3140 ha         1 AAP       0.112000
     34 HM'1         4.7520     4.1760    -3.1770 hc         1 AAP       0.037367
     35 HM'2         3.2300     5.0580    -3.3590 hc         1 AAP       0.037367
     36 HM'3         4.2260     5.3010    -1.9180 hc         1 AAP       0.037367
     37 HM51         1.5920    -0.9400    -6.0230 hc         1 AAP       0.020367
     38 HM52         1.7360    -1.9680    -4.5910 hc         1 AAP       0.020367
     39 HM53         0.2190    -1.1200    -4.9230 hc         1 AAP       0.020367
     40 HN3         -0.1270     1.9220    -0.0910 hn         1 AAP       0.258133
@<TRIPOS>BOND
     1     1     2 1   
     2     1     3 2   
     3     1     4 1   
     4     2     5 1   
     5     2    13 1   
     6     2    24 1   
     7     4    25 1   
     8     4    26 1   
     9     4    40 1   
    10     5     6 ar  
    11     5    10 ar  
    12     6     7 ar  
    13     6    11 1   
    14     7     8 ar  
    15     7    27 1   
    16     8     9 ar  
    17     8    28 1   
    18     9    10 ar  
    19     9    29 1   
    20    10    12 1   
    21    13    14 1   
    22    13    30 1   
    23    14    15 ar  
    24    14    19 ar  
    25    15    16 ar  
    26    15    20 1   
    27    16    17 ar  
    28    16    31 1   
    29    17    18 ar  
    30    17    32 1   
    31    18    19 ar  
    32    18    23 1   
    33    19    33 1   
    34    20    21 2   
    35    20    22 1   
    36    22    34 1   
    37    22    35 1   
    38    22    36 1   
    39    23    37 1   
    40    23    38 1   
    41    23    39 1   
@<TRIPOS>SUBSTRUCTURE
     1 AAP         1 TEMP              0 ****  ****    0 ROOT
