@<TRIPOS>MOLECULE
AAQ
   49    52     1     0     0
SMALL
bcc


@<TRIPOS>ATOM
      1 N1           0.0000     0.0000     0.0000 na         1 AAQ       0.237700
      2 C3           1.3900     0.0000     0.0000 ca         1 AAQ      -0.260200
      3 C2           2.3390     0.0000     1.0010 ca         1 AAQ       0.021000
      4 C4           3.6910     0.0000     0.6650 ca         1 AAQ      -0.176600
      5 C5           4.0930    -0.0010    -0.6930 ca         1 AAQ       0.036400
      6 C6           3.1310    -0.0010    -1.6970 ca         1 AAQ       0.050700
      7 C7           3.5480    -0.0020    -3.1460 c3         1 AAQ       0.016900
      8 C8           3.6870    -1.4450    -3.6350 c3         1 AAQ       0.151800
      9 N2           4.0940    -1.4460    -5.0470 n7         1 AAQ      -0.590200
     10 C9           4.2390    -2.8170    -5.5520 c3         1 AAQ       0.208100
     11 C10          4.6550    -2.7780    -6.9990 ca         1 AAQ      -0.107300
     12 C11          5.9960    -2.7610    -7.3330 ca         1 AAQ      -0.088500
     13 C12          6.3790    -2.7240    -8.6600 ca         1 AAQ      -0.097000
     14 C13          5.4180    -2.7060    -9.6560 ca         1 AAQ      -0.090000
     15 C14          4.0770    -2.7250    -9.3220 ca         1 AAQ      -0.097000
     16 C15          3.6950    -2.7660    -7.9950 ca         1 AAQ      -0.088500
     17 C16          1.7800    -0.0010    -1.3570 ca         1 AAQ       0.126400
     18 N3           0.6410    -0.0010    -2.0970 nc         1 AAQ      -0.600100
     19 C17         -0.4030    -0.0010    -1.3040 cd         1 AAQ       0.372700
     20 N4          -1.7140    -0.0020    -1.7250 nu         1 AAQ      -0.431200
     21 C1          -2.7990    -0.0030    -0.7410 c3         1 AAQ       0.185100
     22 N5           5.4190    -0.0010    -0.9890 nc         1 AAQ      -0.337100
     23 C18          6.3290     0.0000    -0.0490 cd         1 AAQ      -0.035200
     24 N6           7.6510     0.0010    -0.4190 nz         1 AAQ       0.219400
     25 N7           6.0250    -0.0000     1.2820 ns         1 AAQ      -0.027400
     26 C19          4.7380    -0.0000     1.6950 c          1 AAQ       0.634100
     27 O1           4.4560     0.0010     2.8800 o          1 AAQ      -0.606500
     28 HN1         -0.5940     0.0000     0.8050 hn         1 AAQ       0.147700
     29 H2           1.9560     0.0000     2.0140 ha         1 AAQ       0.132000
     30 H7           2.7980     0.5090    -3.7380 hc         1 AAQ       0.040200
     31 H7A          4.4980     0.5080    -3.2490 hc         1 AAQ       0.040200
     32 H8           4.4370    -1.9560    -3.0430 h1         1 AAQ       0.007200
     33 H8A          2.7370    -1.9540    -3.5330 h1         1 AAQ       0.007200
     34 HN2          3.4090    -0.9600    -5.5920 hn         1 AAQ       0.265800
     35 H9           4.9930    -3.3370    -4.9730 h1         1 AAQ       0.008200
     36 H9A          3.2920    -3.3370    -5.4620 h1         1 AAQ       0.008200
     37 H11          6.7480    -2.7750    -6.5530 ha         1 AAQ       0.101000
     38 H12          7.4300    -2.7100    -8.9210 ha         1 AAQ       0.106000
     39 H13          5.7170    -2.6760   -10.6970 ha         1 AAQ       0.107000
     40 H14          3.3250    -2.7130   -10.1020 ha         1 AAQ       0.106000
     41 H15          2.6440    -2.7810    -7.7330 ha         1 AAQ       0.101000
     42 HN4         -1.9260    -0.0080    -2.7030 hn         1 AAQ       0.321800
     43 H1          -2.7220    -0.8860    -0.1190 h1         1 AAQ       0.015367
     44 H1A         -3.7530    -0.0040    -1.2540 h1         1 AAQ       0.015367
     45 H1B         -2.7250     0.8830    -0.1200 h1         1 AAQ       0.015367
     46 HN6          8.0610     0.8840    -0.1890 hn         1 AAQ       0.213133
     47 HN6A         8.1340    -0.7280     0.0670 hn         1 AAQ       0.213133
     48 HN7          6.7630     0.0010     1.9580 hn         1 AAQ       0.182500
     49 H63          7.7210    -0.1530    -1.4060 hn         1 AAQ       0.213133
@<TRIPOS>BOND
     1     1     2 1   
     2     1    19 1   
     3     1    28 1   
     4     2     3 ar  
     5     2    17 ar  
     6     3     4 ar  
     7     3    29 1   
     8     4     5 ar  
     9     4    26 1   
    10     5     6 ar  
    11     5    22 1   
    12     6     7 1   
    13     6    17 ar  
    14     7     8 1   
    15     7    30 1   
    16     7    31 1   
    17     8     9 1   
    18     8    32 1   
    19     8    33 1   
    20     9    10 1   
    21     9    34 1   
    22    10    11 1   
    23    10    35 1   
    24    10    36 1   
    25    11    12 ar  
    26    11    16 ar  
    27    12    13 ar  
    28    12    37 1   
    29    13    14 ar  
    30    13    38 1   
    31    14    15 ar  
    32    14    39 1   
    33    15    16 ar  
    34    15    40 1   
    35    16    41 1   
    36    17    18 1   
    37    18    19 2   
    38    19    20 1   
    39    20    21 1   
    40    20    42 1   
    41    21    43 1   
    42    21    44 1   
    43    21    45 1   
    44    22    23 2   
    45    23    24 1   
    46    23    25 1   
    47    24    46 1   
    48    24    47 1   
    49    24    49 1   
    50    25    26 1   
    51    25    48 1   
    52    26    27 2   
@<TRIPOS>SUBSTRUCTURE
     1 AAQ         1 TEMP              0 ****  ****    0 ROOT
