@<TRIPOS>MOLECULE
molecule
   49    52     1     0     0
SMALL
bcc


@<TRIPOS>ATOM
      1 N1           0.0000     0.0000     0.0000 na         1 AAQ      -0.286300
      2 C3           1.3900     0.0000     0.0000 ca         1 AAQ      -0.083200
      3 C2           2.3390     0.0000     1.0010 ca         1 AAQ      -0.035000
      4 C4           3.6910     0.0000     0.6650 ca         1 AAQ      -0.173600
      5 C5           4.0930    -0.0010    -0.6930 ca         1 AAQ       0.117400
      6 C6           3.1310    -0.0010    -1.6970 ca         1 AAQ       0.028700
      7 C7           3.5480    -0.0020    -3.1460 c3         1 AAQ      -0.036100
      8 C8           3.6870    -1.4450    -3.6350 c3         1 AAQ       0.163800
      9 N2           4.0940    -1.4460    -5.0470 n7         1 AAQ      -0.821200
     10 C9           4.2390    -2.8170    -5.5520 c3         1 AAQ       0.207100
     11 C10          4.6550    -2.7780    -6.9990 ca         1 AAQ      -0.095300
     12 C11          5.9960    -2.7610    -7.3330 ca         1 AAQ      -0.116000
     13 C12          6.3790    -2.7240    -8.6600 ca         1 AAQ      -0.125500
     14 C13          5.4180    -2.7060    -9.6560 ca         1 AAQ      -0.118000
     15 C14          4.0770    -2.7250    -9.3220 ca         1 AAQ      -0.125500
     16 C15          3.6950    -2.7660    -7.9950 ca         1 AAQ      -0.116000
     17 C16          1.7800    -0.0010    -1.3570 ca         1 AAQ       0.161400
     18 N3           0.6410    -0.0010    -2.0970 nc         1 AAQ      -0.670100
     19 C17         -0.4030    -0.0010    -1.3040 cd         1 AAQ       0.715700
     20 N4          -1.7140    -0.0020    -1.7250 nu         1 AAQ      -0.858200
     21 C1          -2.7990    -0.0030    -0.7410 c3         1 AAQ       0.214100
     22 N5           5.4190    -0.0010    -0.9890 nc         1 AAQ      -0.528100
     23 C18          6.3290     0.0000    -0.0490 cd         1 AAQ       0.432800
     24 N6           7.6510     0.0010    -0.4190 nz         1 AAQ      -0.728600
     25 N7           6.0250    -0.0000     1.2820 ns         1 AAQ      -0.486400
     26 C19          4.7380    -0.0000     1.6950 c          1 AAQ       0.726100
     27 O1           4.4560     0.0010     2.8800 o          1 AAQ      -0.565500
     28 HN1         -0.5940     0.0000     0.8050 hn         1 AAQ       0.320700
     29 H2           1.9560     0.0000     2.0140 ha         1 AAQ       0.167000
     30 H7           2.7980     0.5090    -3.7380 hc         1 AAQ       0.074200
     31 H7A          4.4980     0.5080    -3.2490 hc         1 AAQ       0.074200
     32 H8           4.4370    -1.9560    -3.0430 h1         1 AAQ       0.035200
     33 H8A          2.7370    -1.9540    -3.5330 h1         1 AAQ       0.035200
     34 HN2          3.4090    -0.9600    -5.5920 hn         1 AAQ       0.365800
     35 H9           4.9930    -3.3370    -4.9730 h1         1 AAQ       0.037700
     36 H9A          3.2920    -3.3370    -5.4620 h1         1 AAQ       0.037700
     37 H11          6.7480    -2.7750    -6.5530 ha         1 AAQ       0.126000
     38 H12          7.4300    -2.7100    -8.9210 ha         1 AAQ       0.134000
     39 H13          5.7170    -2.6760   -10.6970 ha         1 AAQ       0.136000
     40 H14          3.3250    -2.7130   -10.1020 ha         1 AAQ       0.134000
     41 H15          2.6440    -2.7810    -7.7330 ha         1 AAQ       0.126000
     42 HN4         -1.9260    -0.0080    -2.7030 hn         1 AAQ       0.484800
     43 H1          -2.7220    -0.8860    -0.1190 h1         1 AAQ       0.050700
     44 H1A         -3.7530    -0.0040    -1.2540 h1         1 AAQ       0.050700
     45 H1B         -2.7250     0.8830    -0.1200 h1         1 AAQ       0.050700
     46 HN6          8.0610     0.8840    -0.1890 hn         1 AAQ       0.473133
     47 HN6A         8.1340    -0.7280     0.0670 hn         1 AAQ       0.473133
     48 HN7          6.7630     0.0010     1.9580 hn         1 AAQ       0.338500
     49 H63          7.7210    -0.1530    -1.4060 hn         1 AAQ       0.473133
@<TRIPOS>BOND
     1     1     2 1
     2     1    19 1
     3     2     3 ar
     4     2    17 ar
     5     3     4 ar
     6     4     5 ar
     7     4    26 1
     8     5     6 ar
     9     5    22 1
    10     6     7 1
    11     6    17 ar
    12     7     8 1
    13     8     9 1
    14     9    10 1
    15    10    11 1
    16    11    12 ar
    17    11    16 ar
    18    12    13 ar
    19    13    14 ar
    20    14    15 ar
    21    15    16 ar
    22    17    18 1
    23    18    19 2
    24    19    20 1
    25    20    21 1
    26    22    23 2
    27    23    24 1
    28    23    25 1
    29    25    26 1
    30    26    27 2
    31     1    28 1
    32     3    29 1
    33     7    30 1
    34     7    31 1
    35     8    32 1
    36     8    33 1
    37     9    34 1
    38    10    35 1
    39    10    36 1
    40    12    37 1
    41    13    38 1
    42    14    39 1
    43    15    40 1
    44    16    41 1
    45    20    42 1
    46    21    43 1
    47    21    44 1
    48    21    45 1
    49    24    46 1
    50    24    47 1
    51    25    48 1
    52    49    24 1
@<TRIPOS>SUBSTRUCTURE
     1 AAQ         1 TEMP              0 ****  ****    0 ROOT
