@<TRIPOS>MOLECULE
molecule
   60    62     1     0     0
SMALL
bcc


@<TRIPOS>ATOM
      1 N            0.0000     0.0000     0.0000 nz         1 AAT      -0.809600
      2 CA           1.4690     0.0000     0.0000 c3         1 AAT       0.156000
      3 CB           1.9720     0.0000     1.4200 c2         1 AAT      -0.363200
      4 CG           2.7720    -0.9630     1.8370 c2         1 AAT       0.078400
      5 SD           3.4950    -0.8750     3.4420 ss         1 AAT      -0.090700
      6 C5'          2.7960     0.6970     4.0170 c3         1 AAT      -0.035300
      7 C4'          3.2970     0.9910     5.4320 c3         1 AAT       0.135100
      8 O4'          4.7290     1.1210     5.4250 os         1 AAT      -0.421600
      9 C3'          2.7150     2.3290     5.9260 c3         1 AAT       0.092100
     10 O3'          1.9320     2.1370     7.1050 oh         1 AAT      -0.553800
     11 C2'          3.9660     3.1910     6.2390 c3         1 AAT       0.099100
     12 O2'          3.7820     3.9370     7.4440 oh         1 AAT      -0.542800
     13 C1'          5.0660     2.1150     6.4170 c3         1 AAT       0.266800
     14 N9           6.3910     2.6790     6.1520 na         1 AAT      -0.259000
     15 C8           6.9910     2.7910     4.9340 cc         1 AAT       0.398700
     16 N7           8.1650     3.3370     5.0650 nd         1 AAT      -0.573100
     17 C5           8.3930     3.6090     6.3730 ca         1 AAT      -0.221200
     18 C6           9.4550     4.1810     7.0920 ca         1 AAT       0.796200
     19 N6          10.5980     4.6140     6.4440 nv         1 AAT      -0.976500
     20 N1           9.3360     4.2980     8.4100 nb         1 AAT      -0.824000
     21 C2           8.2490     3.8890     9.0380 ca         1 AAT       0.760900
     22 N3           7.2290     3.3470     8.4040 nb         1 AAT      -0.793000
     23 C4           7.2550     3.1950     7.0840 ca         1 AAT       0.492800
     24 C11          3.0690    -2.1370     0.9410 c3         1 AAT      -0.046200
     25 C12          4.2830    -1.8190     0.0680 c3         1 AAT      -0.080400
     26 C13          4.5830    -3.0110    -0.8420 c3         1 AAT      -0.076400
     27 C14          5.7990    -2.6930    -1.7160 c3         1 AAT      -0.112400
     28 C15          6.0990    -3.8850    -2.6260 c3         1 AAT       0.094800
     29 N16          7.2650    -3.5800    -3.4650 nz         1 AAT      -0.809600
     30 HN1         -0.3340     0.8680     0.3710 hn         1 AAT       0.456467
     31 HN2         -0.3340    -0.7550     0.5660 hn         1 AAT       0.456467
     32 HCA1         1.8300     0.8850    -0.5110 hx         1 AAT       0.104200
     33 HCA2         1.8300    -0.8840    -0.5110 hx         1 AAT       0.104200
     34 HCB          1.7600     0.8430     2.0670 ha         1 AAT       0.162000
     35 H5'1         1.7150     0.6310     4.0230 h1         1 AAT       0.073200
     36 H5'2         3.1050     1.4940     3.3520 h1         1 AAT       0.073200
     37 H4'C         3.0050     0.1940     6.1040 h1         1 AAT       0.098700
     38 H3'C         2.1250     2.7930     5.1460 h1         1 AAT       0.036700
     39 H3'O         1.0430     2.4000     6.9380 ho         1 AAT       0.411000
     40 H2'C         4.1990     3.8430     5.4050 h1         1 AAT       0.057700
     41 H2'O         3.5860     4.8340     7.2320 ho         1 AAT       0.415000
     42 H1'C         5.0200     1.6880     7.4110 h2         1 AAT       0.129700
     43 HC8          6.5560     2.4730     3.9940 h5         1 AAT       0.066800
     44 HN61        11.3540     5.0060     6.9700 hn         1 AAT       0.454300
     45 HN62        10.6650     4.5450     5.4470 hn         1 AAT       0.454300
     46 HC2          8.1940     4.0040    10.1140 h5         1 AAT       0.073100
     47 H111         3.2790    -3.0090     1.5480 hc         1 AAT       0.066200
     48 H112         2.2110    -2.3350     0.3100 hc         1 AAT       0.066200
     49 H121         5.1410    -1.6220     0.7000 hc         1 AAT       0.060700
     50 H122         4.0730    -0.9460    -0.5380 hc         1 AAT       0.060700
     51 H131         4.7930    -3.8840    -0.2360 hc         1 AAT       0.061200
     52 H132         3.7260    -3.2080    -1.4740 hc         1 AAT       0.061200
     53 H141         6.6560    -2.4960    -1.0840 hc         1 AAT       0.069700
     54 H142         5.5890    -1.8200    -2.3230 hc         1 AAT       0.069700
     55 H151         6.3090    -4.7580    -2.0200 hx         1 AAT       0.115200
     56 H152         5.2420    -4.0820    -3.2580 hx         1 AAT       0.115200
     57 H161         7.4600    -4.3590    -4.0620 hn         1 AAT       0.462133
     58 H162         8.0580    -3.4010    -2.8810 hn         1 AAT       0.462133
     59 HN3         -0.3340    -0.1190    -0.9360 hn         1 AAT       0.456467
     60 H163         7.0670    -2.7820    -4.0350 hn         1 AAT       0.462133
@<TRIPOS>BOND
     1     1     2 1
     2     1    30 1
     3     1    31 1
     4     2     3 1
     5     2    32 1
     6     2    33 1
     7     3     4 2
     8     3    34 1
     9     4     5 1
    10     4    24 1
    11     5     6 1
    12     6     7 1
    13     6    35 1
    14     6    36 1
    15     7     8 1
    16     7     9 1
    17     7    37 1
    18     8    13 1
    19     9    10 1
    20     9    11 1
    21     9    38 1
    22    10    39 1
    23    11    12 1
    24    11    13 1
    25    11    40 1
    26    12    41 1
    27    13    14 1
    28    13    42 1
    29    14    15 1
    30    14    23 1
    31    15    16 2
    32    15    43 1
    33    16    17 1
    34    17    18 ar
    35    17    23 ar
    36    18    19 1
    37    18    20 ar
    38    19    44 1
    39    19    45 1
    40    20    21 ar
    41    21    22 ar
    42    21    46 1
    43    22    23 ar
    44    24    25 1
    45    24    47 1
    46    24    48 1
    47    25    26 1
    48    25    49 1
    49    25    50 1
    50    26    27 1
    51    26    51 1
    52    26    52 1
    53    27    28 1
    54    27    53 1
    55    27    54 1
    56    28    29 1
    57    28    55 1
    58    28    56 1
    59    29    57 1
    60    29    58 1
    61    59     1 1
    62    60    29 1
@<TRIPOS>SUBSTRUCTURE
     1 AAT         1 TEMP              0 ****  ****    0 ROOT
