@<TRIPOS>MOLECULE
AAT
   60    63     1     0     0
SMALL
bcc


@<TRIPOS>ATOM
      1 N            0.0000     0.0000     0.0000 nz         1 AAT       0.816000
      2 CA           1.4690     0.0000     0.0000 DU         1 AAT      -0.295000
      3 CB           1.9720     0.0000     1.4200 c2         1 AAT      -0.448000
      4 CG           2.7720    -0.9630     1.8370 c2         1 AAT      -0.026000
      5 SD           3.4950    -0.8750     3.4420 ss         1 AAT       0.320000
      6 C5'          2.7960     0.6970     4.0170 c3         1 AAT      -0.179000
      7 C4'          3.2970     0.9910     5.4320 c3         1 AAT       0.055000
      8 O4'          4.7290     1.1210     5.4250 os         1 AAT      -0.266000
      9 C3'          2.7150     2.3290     5.9260 c3         1 AAT       0.021000
     10 O3'          1.9320     2.1370     7.1050 oh         1 AAT      -0.261000
     11 C2'          3.9660     3.1910     6.2390 c3         1 AAT       0.023000
     12 O2'          3.7820     3.9370     7.4440 oh         1 AAT      -0.252000
     13 C1'          5.0660     2.1150     6.4170 c3         1 AAT       0.072000
     14 N9           6.3910     2.6790     6.1520 na         1 AAT       0.276000
     15 C8           6.9910     2.7910     4.9340 c2         1 AAT      -0.228000
     16 N7           8.1650     3.3370     5.0650 n2         1 AAT      -0.050000
     17 C5           8.3930     3.6090     6.3730 c2         1 AAT      -0.232000
     18 C6           9.4550     4.1810     7.0920 c2         1 AAT       0.075000
     19 N6          10.5980     4.6140     6.4440 nv         1 AAT       0.059000
     20 N1           9.3360     4.2980     8.4100 n2         1 AAT      -0.163000
     21 C2           8.2490     3.8890     9.0380 c2         1 AAT       0.024000
     22 N3           7.2290     3.3470     8.4040 n2         1 AAT      -0.125000
     23 C4           7.2550     3.1950     7.0840 c2         1 AAT      -0.124000
     24 C11          3.0690    -2.1370     0.9410 c3         1 AAT      -0.106000
     25 C12          4.2830    -1.8190     0.0680 c3         1 AAT      -0.102000
     26 C13          4.5830    -3.0110    -0.8420 c3         1 AAT      -0.095000
     27 C14          5.7990    -2.6930    -1.7160 c3         1 AAT      -0.114000
     28 C15          6.0990    -3.8850    -2.6260 c3         1 AAT      -0.287000
     29 N16          7.2650    -3.5800    -3.4650 nz         1 AAT       0.863000
     30 HN1         -0.3340    -0.9420    -0.0470 hn         1 AAT       0.028333
     31 HN2         -0.3340     0.5120    -0.7930 hn         1 AAT       0.028333
     32 HCA1         1.8300    -0.8840    -0.5110 hx         1 AAT       0.119000
     33 HCA2         1.8300     0.8850    -0.5110 hx         1 AAT       0.119000
     34 HCB          1.1100    -0.5860     1.1250 DU         1 AAT       0.121000
     35 H5'1         3.1050     1.4940     3.3520 h1         1 AAT       0.106500
     36 H5'2         1.7150     0.6310     4.0230 h1         1 AAT       0.106500
     37 H4'C         3.0050     0.1940     6.1040 h1         1 AAT       0.100000
     38 H3'C         2.1250     2.7930     5.1460 h1         1 AAT       0.048000
     39 H3'O         1.0340     2.3610     6.9260 ho         1 AAT       0.193000
     40 H2'C         4.1990     3.8430     5.4050 h1         1 AAT       0.062000
     41 H2'O         3.5720     4.8310     7.2320 ho         1 AAT       0.198000
     42 H1'C         5.0200     1.6880     7.4110 h2         1 AAT       0.124000
     43 HC8          6.5550     2.4750     3.9940 h5         1 AAT       0.151000
     44 HN61        10.5240     5.2320     5.6590 hn         1 AAT       0.076000
     45 HN62        11.4990     4.3380     6.7800 hn         1 AAT       0.076000
     46 HC2          8.1940     4.0040    10.1140 h5         1 AAT       0.143000
     47 H111         3.2790    -3.0090     1.5480 hc         1 AAT       0.078500
     48 H112         2.2120    -2.3350     0.3100 hc         1 AAT       0.078500
     49 H121         4.0730    -0.9460    -0.5380 hc         1 AAT       0.074000
     50 H122         5.1410    -1.6220     0.7000 hc         1 AAT       0.074000
     51 H131         4.7930    -3.8840    -0.2360 hc         1 AAT       0.069500
     52 H132         3.7260    -3.2080    -1.4740 hc         1 AAT       0.069500
     53 H141         5.5890    -1.8200    -2.3230 hc         1 AAT       0.077000
     54 H142         6.6560    -2.4960    -1.0840 hc         1 AAT       0.077000
     55 H151         6.3090    -4.7580    -2.0200 hx         1 AAT       0.126500
     56 H152         5.2420    -4.0820    -3.2580 hx         1 AAT       0.126500
     57 H161         8.0550    -3.3860    -2.8810 hn         1 AAT       0.023333
     58 H162         7.0670    -2.7810    -4.0340 hn         1 AAT       0.023333
     59 HN3         -0.3340     0.4130     0.8480 hn         1 AAT       0.028333
     60 H163         7.4630    -4.3610    -4.0580 hn         1 AAT       0.023333
@<TRIPOS>BOND
     1     1     2 1   
     2     1    30 1   
     3     1    31 1   
     4     1    59 1   
     5     2     3 1   
     6     2    32 1   
     7     2    33 1   
     8     2    34 1   
     9     3     4 1   
    10     3    34 1   
    11     4     5 1   
    12     4    24 1   
    13     5     6 1   
    14     6     7 1   
    15     6    35 1   
    16     6    36 1   
    17     7     8 1   
    18     7     9 1   
    19     7    37 1   
    20     8    13 1   
    21     9    10 1   
    22     9    11 1   
    23     9    38 1   
    24    10    39 1   
    25    11    12 1   
    26    11    13 1   
    27    11    40 1   
    28    12    41 1   
    29    13    14 1   
    30    13    42 1   
    31    14    15 1   
    32    14    23 1   
    33    15    16 1   
    34    15    43 1   
    35    16    17 1   
    36    17    18 1   
    37    17    23 1   
    38    18    19 1   
    39    18    20 1   
    40    19    44 1   
    41    19    45 1   
    42    20    21 1   
    43    21    22 1   
    44    21    46 1   
    45    22    23 1   
    46    24    25 1   
    47    24    47 1   
    48    24    48 1   
    49    25    26 1   
    50    25    49 1   
    51    25    50 1   
    52    26    27 1   
    53    26    51 1   
    54    26    52 1   
    55    27    28 1   
    56    27    53 1   
    57    27    54 1   
    58    28    29 1   
    59    28    55 1   
    60    28    56 1   
    61    29    57 1   
    62    29    58 1   
    63    29    60 1   
@<TRIPOS>SUBSTRUCTURE
     1 AAT         1 TEMP              0 ****  ****    0 ROOT
