@<TRIPOS>MOLECULE
AAU
   86    90     1     0     0
SMALL
bcc


@<TRIPOS>ATOM
      1 C1           0.0000     0.0000     0.0000 c3         1 AAU       0.206700
      2 O2           1.4290     0.0000     0.0000 os         1 AAU      -0.267900
      3 C3           1.8220     0.0000     1.3020 ca         1 AAU       0.105100
      4 C4           0.8740    -0.0020     2.3130 ca         1 AAU      -0.190000
      5 C5           1.2750    -0.0020     3.6370 ca         1 AAU      -0.098300
      6 C6           0.2430    -0.0030     4.7340 c3         1 AAU       0.102300
      7 N7          -0.1970    -1.3770     4.9900 n          1 AAU      -0.118800
      8 C8           0.4740    -2.0870     6.0720 c3         1 AAU       0.007700
      9 C9           1.4270    -3.1280     5.4810 c3         1 AAU      -0.087100
     10 C10          2.6710    -3.2070     6.3270 ca         1 AAU      -0.073300
     11 C11          2.7530    -4.1320     7.3520 ca         1 AAU      -0.104000
     12 C12          3.8940    -4.2060     8.1280 ca         1 AAU      -0.099500
     13 C13          4.9550    -3.3540     7.8800 ca         1 AAU      -0.105000
     14 C14          4.8740    -2.4300     6.8550 ca         1 AAU      -0.099500
     15 C15          3.7340    -2.3600     6.0760 ca         1 AAU      -0.104000
     16 C16         -0.5540    -2.7980     6.9680 c3         1 AAU       0.157100
     17 O17          0.0060    -3.0110     8.2650 oh         1 AAU      -0.563800
     18 C18         -0.9120    -4.1360     6.3350 c3         1 AAU      -0.003000
     19 N19         -0.8500    -4.1050     4.8860 n          1 AAU      -0.115400
     20 N20         -1.5660    -3.1270     4.1780 n          1 AAU      -0.123400
     21 C21         -2.7530    -3.4990     3.4030 c3         1 AAU       0.124300
     22 C22         -3.9880    -3.2830     4.2390 ca         1 AAU      -0.111300
     23 C23         -4.6350    -2.0620     4.2100 ca         1 AAU      -0.092000
     24 C24         -5.7690    -1.8580     4.9750 ca         1 AAU      -0.123000
     25 C25         -6.2580    -2.8800     5.7730 ca         1 AAU       0.099100
     26 O26         -7.3730    -2.6810     6.5260 oh         1 AAU      -0.484100
     27 C27         -5.6060    -4.1100     5.8020 ca         1 AAU       0.103100
     28 O28         -6.0830    -5.1140     6.5840 os         1 AAU      -0.264900
     29 C29         -5.2090    -6.2310     6.3990 c3         1 AAU       0.211700
     30 C30         -4.4730    -4.3080     5.0290 ca         1 AAU      -0.200000
     31 C31         -1.1610    -1.8400     4.2200 c          1 AAU       0.651500
     32 O32         -1.7210    -1.0500     3.4850 o          1 AAU      -0.758500
     33 C33         -0.1070    -5.0120     4.2220 c          1 AAU       0.602100
     34 O34          0.5120    -5.8560     4.8360 o          1 AAU      -0.627100
     35 C35         -0.0440    -4.9780     2.7170 c3         1 AAU      -0.108400
     36 C36          0.8620    -6.1060     2.2190 c3         1 AAU       0.046900
     37 C37          0.9250    -6.0720     0.7130 ca         1 AAU      -0.117300
     38 C38          1.9000    -5.3220     0.0800 ca         1 AAU      -0.077000
     39 C39          1.9590    -5.2890    -1.3000 ca         1 AAU      -0.135500
     40 C40          1.0410    -6.0090    -2.0510 ca         1 AAU       0.122100
     41 O41          1.0970    -5.9780    -3.4080 oh         1 AAU      -0.500100
     42 C42          0.0640    -6.7600    -1.4120 ca         1 AAU      -0.135500
     43 C43          0.0120    -6.7950    -0.0330 ca         1 AAU      -0.077000
     44 C44          2.6210    -0.0010     3.9540 ca         1 AAU      -0.126000
     45 C45          3.5710    -0.0000     2.9500 ca         1 AAU      -0.122000
     46 C46          3.1760    -0.0060     1.6220 ca         1 AAU       0.094100
     47 O47          4.1100    -0.0050     0.6330 oh         1 AAU      -0.484100
     48 H11A        -0.3610     0.0050    -1.0210 h1         1 AAU       0.006700
     49 H12A        -0.3610    -0.8870     0.5060 h1         1 AAU       0.006700
     50 H13A        -0.3610     0.8820     0.5150 h1         1 AAU       0.006700
     51 H4          -0.1800     0.0520     2.0670 ha         1 AAU       0.167000
     52 H61         -0.6060     0.5980     4.4330 h1         1 AAU       0.042200
     53 H62          0.6760     0.4110     5.6370 h1         1 AAU       0.042200
     54 H8           1.0360    -1.3780     6.6680 h1         1 AAU       0.066700
     55 H91          1.6950    -2.8400     4.4710 hc         1 AAU       0.065700
     56 H92          0.9400    -4.0950     5.4630 hc         1 AAU       0.065700
     57 H11          1.9220    -4.7990     7.5460 ha         1 AAU       0.117000
     58 H12          3.9580    -4.9310     8.9300 ha         1 AAU       0.100500
     59 H13          5.8490    -3.4110     8.4890 ha         1 AAU       0.100000
     60 H14          5.7060    -1.7640     6.6590 ha         1 AAU       0.100500
     61 H15          3.6710    -1.6350     5.2730 ha         1 AAU       0.117000
     62 H16         -1.4450    -2.1870     7.0490 h1         1 AAU       0.014700
     63 H17         -0.5810    -2.6730     8.9200 ho         1 AAU       0.394000
     64 H181        -0.1320    -4.8210     6.6440 h1         1 AAU       0.066700
     65 H182        -1.9560    -4.3000     6.5760 h1         1 AAU       0.066700
     66 H211        -2.8090    -2.8860     2.5120 h1         1 AAU       0.043200
     67 H212        -2.6870    -4.5430     3.1200 h1         1 AAU       0.043200
     68 H23         -4.2540    -1.2620     3.5860 ha         1 AAU       0.134000
     69 H24         -6.2750    -0.9000     4.9510 ha         1 AAU       0.116000
     70 H26         -8.1270    -2.6230     5.9630 ho         1 AAU       0.401000
     71 H291        -5.2070    -6.5180     5.3540 h1         1 AAU       0.002367
     72 H292        -4.2050    -5.9580     6.7010 h1         1 AAU       0.002367
     73 H293        -5.5540    -7.0630     7.0010 h1         1 AAU       0.002367
     74 H30         -3.9640    -5.2640     5.0500 ha         1 AAU       0.137000
     75 H351        -1.0390    -5.1080     2.3100 hc         1 AAU       0.043200
     76 H352         0.3560    -4.0240     2.3940 hc         1 AAU       0.043200
     77 H361         0.4620    -7.0600     2.5420 hc         1 AAU       0.033200
     78 H362         1.8580    -5.9760     2.6250 hc         1 AAU       0.033200
     79 H38          2.6170    -4.7600     0.6660 ha         1 AAU       0.108000
     80 H39          2.7230    -4.7020    -1.7950 ha         1 AAU       0.115000
     81 H41          1.6200    -6.6990    -3.7180 ho         1 AAU       0.402000
     82 H42         -0.6520    -7.3250    -1.9960 ha         1 AAU       0.115000
     83 H43         -0.7500    -7.3810     0.4650 ha         1 AAU       0.108000
     84 H44          2.9310     0.0010     4.9920 ha         1 AAU       0.117000
     85 H45          4.6240    -0.0020     3.2020 ha         1 AAU       0.114000
     86 H47          4.5200     0.8430     0.5890 ho         1 AAU       0.400000
@<TRIPOS>BOND
     1     1     2 1   
     2     1    48 1   
     3     1    49 1   
     4     1    50 1   
     5     2     3 1   
     6     3     4 ar  
     7     3    46 ar  
     8     4     5 ar  
     9     4    51 1   
    10     5     6 1   
    11     5    44 ar  
    12     6     7 1   
    13     6    52 1   
    14     6    53 1   
    15     7     8 1   
    16     7    31 1   
    17     8     9 1   
    18     8    16 1   
    19     8    54 1   
    20     9    10 1   
    21     9    55 1   
    22     9    56 1   
    23    10    11 ar  
    24    10    15 ar  
    25    11    12 ar  
    26    11    57 1   
    27    12    13 ar  
    28    12    58 1   
    29    13    14 ar  
    30    13    59 1   
    31    14    15 ar  
    32    14    60 1   
    33    15    61 1   
    34    16    17 1   
    35    16    18 1   
    36    16    62 1   
    37    17    63 1   
    38    18    19 1   
    39    18    64 1   
    40    18    65 1   
    41    19    20 1   
    42    19    33 1   
    43    20    21 1   
    44    20    31 1   
    45    21    22 1   
    46    21    66 1   
    47    21    67 1   
    48    22    23 ar  
    49    22    30 ar  
    50    23    24 ar  
    51    23    68 1   
    52    24    25 ar  
    53    24    69 1   
    54    25    26 1   
    55    25    27 ar  
    56    26    70 1   
    57    27    28 1   
    58    27    30 ar  
    59    28    29 1   
    60    29    71 1   
    61    29    72 1   
    62    29    73 1   
    63    30    74 1   
    64    31    32 2   
    65    33    34 2   
    66    33    35 1   
    67    35    36 1   
    68    35    75 1   
    69    35    76 1   
    70    36    37 1   
    71    36    77 1   
    72    36    78 1   
    73    37    38 ar  
    74    37    43 ar  
    75    38    39 ar  
    76    38    79 1   
    77    39    40 ar  
    78    39    80 1   
    79    40    41 1   
    80    40    42 ar  
    81    41    81 1   
    82    42    43 ar  
    83    42    82 1   
    84    43    83 1   
    85    44    45 ar  
    86    44    84 1   
    87    45    46 ar  
    88    45    85 1   
    89    46    47 1   
    90    47    86 1   
@<TRIPOS>SUBSTRUCTURE
     1 AAU         1 TEMP              0 ****  ****    0 ROOT
