@<TRIPOS>MOLECULE
AAV
   57    61     1     0     0
SMALL
bcc


@<TRIPOS>ATOM
      1 C1         -0.1210   -0.0170   -0.1640 c3        1 AAV      0.156100
      2 N2          1.3150    0.1170   -0.0830 n3        1 AAV     -0.732600
      3 C3          1.8170   -0.0720    1.2700 c3        1 AAV      0.164800
      4 C4          3.3510    0.0620    1.3670 c3        1 AAV      0.185300
      5 N5          4.0420   -0.7710    0.3980 nh        1 AAV     -0.635000
      6 C6          3.5430   -0.5970   -0.9590 c3        1 AAV      0.185300
      7 C7          2.0100   -0.7260   -1.0450 c3        1 AAV      0.164800
      8 C8          5.4490   -0.8590    0.5270 ca        1 AAV      0.129600
      9 C9          6.1770   -0.0860    1.4680 ca        1 AAV     -0.149000
     10 C10         7.5380   -0.2550    1.6510 ca        1 AAV     -0.090000
     11 C11         8.2540   -1.2000    0.8850 ca        1 AAV      0.137400
     12 N12         9.6350   -1.3750    1.0670 nc        1 AAV     -0.599100
     13 C13        10.2380   -2.2670    0.3280 cd        1 AAV      0.483800
     14 N14         9.6450   -3.0710   -0.6610 n         1 AAV     -0.326500
     15 C15        10.4550   -4.0320   -1.3310 ca        1 AAV      0.022600
     16 C16        11.0390   -5.0730   -0.5820 ca        1 AAV     -0.076000
     17 C17        11.8460   -6.0230   -1.2090 ca        1 AAV     -0.151600
     18 N18        12.4560   -8.3690   -0.8990 n         1 AAV     -0.534400
     19 C19        12.4580   -7.0850   -0.3580 c         1 AAV      0.691700
     20 O20        12.9280   -6.8330    0.7650 o         1 AAV     -0.576100
     21 C22        13.6540   -9.5340    1.0460 cc        1 AAV     -0.348600
     22 C23        13.9900  -10.8570    1.2020 cd        1 AAV      0.255600
     23 O24        13.5550  -11.5670    0.0660 os        1 AAV     -0.117100
     24 C25        12.9830   -9.4920   -0.2690 cc        1 AAV      0.431200
     25 C26        12.0880   -5.9460   -2.5830 ca        1 AAV     -0.092000
     26 C27        11.5160   -4.9170   -3.3240 ca        1 AAV     -0.135000
     27 C28        10.7000   -3.9510   -2.7230 ca        1 AAV     -0.016300
     28 C29        10.1090   -2.8780   -3.5550 c3        1 AAV     -0.072800
     29 N29        12.9660  -10.7580   -0.7910 nd        1 AAV     -0.415300
     30 C30         8.2510   -2.9710   -0.8900 c         1 AAV      0.713100
     31 C31         6.1600   -1.8060   -0.2380 ca        1 AAV     -0.102000
     32 O31         7.6930   -3.6870   -1.7400 o         1 AAV     -0.612500
     33 C32         7.5350   -1.9680   -0.0670 ca        1 AAV     -0.157600
     34 H1         -0.4460    0.2240   -1.2100 h1        1 AAV      0.034367
     35 H1A        -0.5920    0.7190    0.5400 h1        1 AAV      0.034367
     36 H1B        -0.4890   -1.0470    0.0970 h1        1 AAV      0.034367
     37 H3          1.3660    0.7290    1.9210 h1        1 AAV      0.040950
     38 H3A         1.5150   -1.0740    1.6930 h1        1 AAV      0.040950
     39 H4          3.6240    1.1510    1.2460 h1        1 AAV      0.045950
     40 H4A         3.6560   -0.2690    2.3990 h1        1 AAV      0.045950
     41 H6          3.9870   -1.3950   -1.6170 h1        1 AAV      0.045950
     42 H6A         3.8470    0.4080   -1.3730 h1        1 AAV      0.045950
     43 H7          1.7300   -1.8130   -0.9260 h1        1 AAV      0.040950
     44 H7A         1.6990   -0.3980   -2.0760 h1        1 AAV      0.040950
     45 H9          5.6640    0.6740    2.0800 ha        1 AAV      0.140000
     46 H10         8.0710    0.3580    2.3960 ha        1 AAV      0.154000
     47 H13        11.3310   -2.4170    0.4740 h5        1 AAV      0.062800
     48 H16        10.8740   -5.1460    0.5070 ha        1 AAV      0.163000
     49 H23        14.4860  -11.4590    1.9560 h4        1 AAV      0.065100
     50 H26        12.7390   -6.6790   -3.0850 ha        1 AAV      0.144000
     51 H27        11.7100   -4.8570   -4.4070 ha        1 AAV      0.146000
     52 H281       10.4660   -2.9410   -4.6120 hc        1 AAV      0.061367
     53 H282        8.9910   -2.9670   -3.5520 hc        1 AAV      0.061367
     54 H283       10.3820   -1.8710   -3.1520 hc        1 AAV      0.061367
     55 H31         5.6490   -2.4490   -0.9750 ha        1 AAV      0.164000
     56 H18        12.0080   -8.5090   -1.7790 hn        1 AAV      0.339500
     57 H22        13.8170   -8.6800    1.7000 ha        1 AAV      0.206000
@<TRIPOS>BOND
     1    1    2 1   
     2    1   34 1   
     3    1   35 1   
     4    1   36 1   
     5    2    3 1   
     6    2    7 1   
     7    3    4 1   
     8    3   37 1   
     9    3   38 1   
    10    4    5 1   
    11    4   39 1   
    12    4   40 1   
    13    5    6 1   
    14    5    8 1   
    15    6    7 1   
    16    6   41 1   
    17    6   42 1   
    18    7   43 1   
    19    7   44 1   
    20    8    9 ar  
    21    8   31 ar  
    22    9   10 ar  
    23    9   45 1   
    24   10   11 ar  
    25   10   46 1   
    26   11   12 1   
    27   11   33 ar  
    28   12   13 2   
    29   13   14 1   
    30   13   47 1   
    31   14   15 1   
    32   14   30 1   
    33   15   16 ar  
    34   15   27 ar  
    35   16   17 ar  
    36   16   48 1   
    37   17   19 1   
    38   17   25 ar  
    39   18   19 1   
    40   18   24 1   
    41   18   56 1   
    42   19   20 2   
    43   21   22 2   
    44   21   24 1   
    45   21   57 1   
    46   22   23 1   
    47   22   49 1   
    48   23   29 1   
    49   24   29 2   
    50   25   26 ar  
    51   25   50 1   
    52   26   27 ar  
    53   26   51 1   
    54   27   28 1   
    55   28   52 1   
    56   28   53 1   
    57   28   54 1   
    58   30   32 2   
    59   30   33 1   
    60   31   33 ar  
    61   31   55 1   
@<TRIPOS>SUBSTRUCTURE
     1 AAV         1 TEMP              0 ****  ****    0 ROOT
