@<TRIPOS>MOLECULE
AAX
   59    63     1     0     0
SMALL
bcc


@<TRIPOS>ATOM
      1 O29         0.8440   -0.5880    0.8550 o         1 AAX     -0.577300
      2 S27         1.9630   -0.4430    0.0610 sy        1 AAX      1.497200
      3 O28         3.1310    0.0870    0.5740 o         1 AAX     -0.577300
      4 N30         1.4000    0.9330   -1.1290 n4        1 AAX     -0.701900
      5 C31         0.7950    2.0710   -0.3950 c3        1 AAX      0.136800
      6 C32         0.3630    3.1890   -1.2970 cx        1 AAX     -0.197700
      7 C34         1.3910    4.1540   -1.8340 cx        1 AAX     -0.106400
      8 C33         0.4400    4.6000   -0.7680 cx        1 AAX     -0.106400
      9 C6          2.1770   -1.5660   -1.0560 ca        1 AAX     -0.571500
     10 C5          3.4540   -2.0570   -1.3940 ca        1 AAX      0.053000
     11 C4          3.6140   -3.0320   -2.3610 ca        1 AAX     -0.224000
     12 C7          1.0560   -2.1070   -1.7240 ca        1 AAX      0.011000
     13 C8          1.1830   -3.0280   -2.7630 ca        1 AAX      0.085600
     14 C3          2.4990   -3.5210   -3.0650 ca        1 AAX      0.229100
     15 O2          2.5690   -4.4550   -4.0510 os        1 AAX     -0.309900
     16 C1          3.8500   -5.0310   -4.3360 c3        1 AAX      0.106700
     17 N9          0.0340   -3.4970   -3.4390 nh        1 AAX     -0.663300
     18 C10        -0.7970   -2.5290   -4.0180 cc        1 AAX      0.683300
     19 O14        -1.6900   -3.0060   -5.0050 os        1 AAX     -0.373800
     20 C13        -2.4670   -1.8820   -5.3540 cc        1 AAX      0.249900
     21 C12        -2.0130   -0.8080   -4.5940 cd        1 AAX      0.240900
     22 N11        -0.9660   -1.2130   -3.7600 nd        1 AAX     -0.747000
     23 C15        -3.4950   -2.0600   -6.3440 ca        1 AAX     -0.144500
     24 C20        -3.7140   -3.3120   -6.9340 ca        1 AAX     -0.090000
     25 C19        -4.7200   -3.4770   -7.8950 cp        1 AAX     -0.023000
     26 C18        -5.5050   -2.3740   -8.2620 ca        1 AAX     -0.096000
     27 C17        -5.2870   -1.1290   -7.6750 ca        1 AAX     -0.125000
     28 C16        -4.2880   -0.9640   -6.7190 ca        1 AAX     -0.103000
     29 C21        -4.9450   -4.7820   -8.5030 cp        1 AAX     -0.168300
     30 C26        -4.8440   -5.9650   -7.7330 ca        1 AAX      0.407200
     31 N25        -5.0340   -7.1990   -8.2330 nb        1 AAX     -0.660000
     32 C24        -5.3410   -7.3000   -9.5410 ca        1 AAX      0.404200
     33 C23        -5.4690   -6.1870  -10.3930 ca        1 AAX     -0.241300
     34 C22        -5.2680   -4.9140   -9.8630 ca        1 AAX     -0.079000
     35 H30         2.1890    1.2840   -1.6700 hn        1 AAX      0.450800
     36 H311        1.5660    2.4400    0.3450 hx        1 AAX      0.109200
     37 H312       -0.0980    1.6780    0.1760 hx        1 AAX      0.109200
     38 H32        -0.4980    2.9210   -1.9420 hc        1 AAX      0.104700
     39 H341        1.2690    4.5380   -2.8640 hc        1 AAX      0.090700
     40 H342        2.4550    4.0090   -1.5730 hc        1 AAX      0.090700
     41 H331        0.8190    4.7720    0.2560 hc        1 AAX      0.090700
     42 H332       -0.3770    5.2990   -1.0270 hc        1 AAX      0.090700
     43 H5          4.3440   -1.6560   -0.8720 ha        1 AAX      0.174000
     44 H4          4.6230   -3.4150   -2.5870 ha        1 AAX      0.176000
     45 H7          0.0430   -1.7880   -1.4030 ha        1 AAX      0.182000
     46 H11         4.2580   -5.5390   -3.4290 h1        1 AAX      0.073033
     47 H12A        3.6100   -5.7750   -5.1400 h1        1 AAX      0.073033
     48 H13         4.5490   -4.2460   -4.7130 h1        1 AAX      0.073033
     49 HN9         0.1770   -4.3030   -4.0220 hn        1 AAX      0.460800
     50 H12        -2.3670    0.2240   -4.5880 h4        1 AAX      0.056100
     51 H20        -3.0870   -4.1700   -6.6420 ha        1 AAX      0.149000
     52 H18        -6.3040   -2.4960   -9.0100 ha        1 AAX      0.148000
     53 H17        -5.9110   -0.2700   -7.9660 ha        1 AAX      0.146000
     54 H16        -4.1220    0.0210   -6.2580 ha        1 AAX      0.135000
     55 H26        -4.6080   -5.9150   -6.6550 h4        1 AAX      0.023100
     56 H24        -5.4920   -8.3270   -9.9210 h4        1 AAX      0.031100
     57 H23        -5.7230   -6.3250  -11.4520 ha        1 AAX      0.152000
     58 H22        -5.3530   -4.0230  -10.5020 ha        1 AAX      0.143000
     59 H302        0.7190    0.5740   -1.8010 hn        1 AAX      0.450800
@<TRIPOS>BOND
     1    1    2 2
     2    2    3 2
     3    2    4 1
     4    2    9 1
     5    4    5 1
     6    4   35 1
     7    4   59 1
     8    5    6 1
     9    5   36 1
    10    5   37 1
    11    6    7 1
    12    6    8 1
    13    6   38 1
    14    7    8 1
    15    7   39 1
    16    7   40 1
    17    8   41 1
    18    8   42 1
    19    9   10 ar
    20    9   12 ar
    21   10   11 ar
    22   10   43 1
    23   11   14 ar
    24   11   44 1
    25   12   13 ar
    26   12   45 1
    27   13   14 ar
    28   13   17 1
    29   14   15 1
    30   15   16 1
    31   16   46 1
    32   16   47 1
    33   16   48 1
    34   17   18 1
    35   17   49 1
    36   18   19 1
    37   18   22 2
    38   19   20 1
    39   20   21 2
    40   20   23 1
    41   21   22 1
    42   21   50 1
    43   23   24 ar
    44   23   28 ar
    45   24   25 ar
    46   24   51 1
    47   25   26 ar
    48   25   29 1
    49   26   27 ar
    50   26   52 1
    51   27   28 ar
    52   27   53 1
    53   28   54 1
    54   29   30 ar
    55   29   34 ar
    56   30   31 ar
    57   30   55 1
    58   31   32 ar
    59   32   33 ar
    60   32   56 1
    61   33   34 ar
    62   33   57 1
    63   34   58 1
@<TRIPOS>SUBSTRUCTURE
     1 AAX         1 TEMP              0 ****  ****    0 ROOT
