@<TRIPOS>MOLECULE
AAZ
   52    55     1     0     0
SMALL
bcc


@<TRIPOS>ATOM
      1 O4         -0.7260    0.4310   -0.9310 o         1 AAZ     -0.655300
      2 S3          0.4360    0.5600   -0.1520 sy        1 AAZ      1.387300
      3 O5          0.2710    0.8700    1.2040 o         1 AAZ     -0.655300
      4 C2          1.3850   -0.8540   -0.3030 c3        1 AAZ     -0.313600
      5 C1          0.7080   -2.0420    0.3280 c3        1 AAZ     -0.075100
      6 C6          1.4750    1.6590   -0.8800 ca        1 AAZ     -0.406500
      7 C7          1.2170    2.1280   -2.1720 ca        1 AAZ      0.011000
      8 C8          2.0590    3.0480   -2.7830 ca        1 AAZ     -0.220000
      9 C9          3.1930    3.5100   -2.1040 ca        1 AAZ      0.161100
     10 O10         4.0900    4.4090   -2.6370 os        1 AAZ     -0.336900
     11 C11         3.7840    4.9340   -3.9270 c3        1 AAZ      0.115700
     12 C12         3.4780    3.0600   -0.7800 ca        1 AAZ      0.056600
     13 C31         2.5940    2.1420   -0.1920 ca        1 AAZ      0.028000
     14 N13         4.5710    3.5830   -0.0390 nh        1 AAZ     -0.652300
     15 C14         5.5310    2.6770    0.4210 cc        1 AAZ      0.697300
     16 N15         5.4510    1.3820    0.7980 nd        1 AAZ     -0.708000
     17 C16         6.7190    1.0630    1.2910 cd        1 AAZ      0.265900
     18 C17         7.5630    2.1660    1.2060 cc        1 AAZ      0.196900
     19 O18         6.8240    3.2230    0.6380 os        1 AAZ     -0.392800
     20 C19         8.9330    2.4170    1.5630 ca        1 AAZ     -0.122500
     21 C20         9.7000    1.3830    2.1230 ca        1 AAZ     -0.107000
     22 C21        11.0270    1.6140    2.4740 ca        1 AAZ     -0.133000
     23 C22        11.6050    2.8650    2.2680 ca        1 AAZ     -0.110000
     24 C23        10.8490    3.9020    1.7030 cp        1 AAZ     -0.144500
     25 C24         9.5110    3.6790    1.3590 ca        1 AAZ     -0.069000
     26 C25        11.4730    5.2180    1.4750 cp        1 AAZ      0.457800
     27 C26        12.8000    5.2670    0.9890 ca        1 AAZ     -0.237300
     28 C27        13.3990    6.5090    0.7750 ca        1 AAZ     -0.093000
     29 C28        12.6710    7.6670    1.0460 ca        1 AAZ     -0.246300
     30 C29        11.3540    7.5260    1.5220 ca        1 AAZ      0.398200
     31 N30        10.7550    6.3430    1.7350 nb        1 AAZ     -0.656000
     32 H21A        2.3930   -0.7210    0.1750 h1        1 AAZ      0.114200
     33 H22A        1.5950   -1.0920   -1.3790 h1        1 AAZ      0.114200
     34 H11        -0.2710   -2.2470   -0.1720 hc        1 AAZ      0.052033
     35 H12         0.5260   -1.8560    1.4160 hc        1 AAZ      0.052033
     36 H13A        1.3470   -2.9530    0.2310 hc        1 AAZ      0.052033
     37 H7          0.3220    1.7640   -2.7110 ha        1 AAZ      0.166000
     38 H8          1.8310    3.4030   -3.7980 ha        1 AAZ      0.149000
     39 H111        4.6250    5.6480   -4.1160 h1        1 AAZ      0.053700
     40 H112        3.7790    4.1180   -4.6890 h1        1 AAZ      0.053700
     41 H113        2.8040    5.4700   -3.9100 h1        1 AAZ      0.053700
     42 H31         2.7750    1.7940    0.8440 ha        1 AAZ      0.179000
     43 H13         4.9860    4.3990   -0.4550 hn        1 AAZ      0.441800
     44 H16         6.9290    0.0630    1.6720 h4        1 AAZ      0.052100
     45 H20         9.2490    0.3930    2.2870 ha        1 AAZ      0.136000
     46 H21        11.6230    0.8030    2.9200 ha        1 AAZ      0.137000
     47 H22        12.6510    3.0420    2.5580 ha        1 AAZ      0.137000
     48 H24         8.9020    4.4910    0.9300 ha        1 AAZ      0.162000
     49 H26        13.3450    4.3370    0.7770 ha        1 AAZ      0.146000
     50 H27        14.4300    6.5710    0.3970 ha        1 AAZ      0.139000
     51 H28        13.1050    8.6640    0.8950 ha        1 AAZ      0.145000
     52 H29        10.7380    8.4150    1.7500 h4        1 AAZ      0.024100
@<TRIPOS>BOND
     1    1    2 2   
     2    2    3 2   
     3    2    4 1   
     4    2    6 1   
     5    4    5 1   
     6    4   32 1   
     7    4   33 1   
     8    5   34 1   
     9    5   35 1   
    10    5   36 1   
    11    6    7 ar  
    12    6   13 ar  
    13    7    8 ar  
    14    7   37 1   
    15    8    9 ar  
    16    8   38 1   
    17    9   10 1   
    18    9   12 ar  
    19   10   11 1   
    20   11   39 1   
    21   11   40 1   
    22   11   41 1   
    23   12   13 ar  
    24   12   14 1   
    25   13   42 1   
    26   14   15 1   
    27   14   43 1   
    28   15   16 2   
    29   15   19 1   
    30   16   17 1   
    31   17   18 2   
    32   17   44 1   
    33   18   19 1   
    34   18   20 1   
    35   20   21 ar  
    36   20   25 ar  
    37   21   22 ar  
    38   21   45 1   
    39   22   23 ar  
    40   22   46 1   
    41   23   24 ar  
    42   23   47 1   
    43   24   25 ar  
    44   24   26 1   
    45   25   48 1   
    46   26   27 ar  
    47   26   31 ar  
    48   27   28 ar  
    49   27   49 1   
    50   28   29 ar  
    51   28   50 1   
    52   29   30 ar  
    53   29   51 1   
    54   30   31 ar  
    55   30   52 1   
@<TRIPOS>SUBSTRUCTURE
     1 AAZ         1 TEMP              0 ****  ****    0 ROOT
