@<TRIPOS>MOLECULE
AB0
   47    49     1     0     0
SMALL
bcc


@<TRIPOS>ATOM
      1 C22        -0.7400   -0.3920    0.9110 c3        1 AB0      0.093700
      2 O21         0.5220   -0.3440    0.2500 os        1 AB0     -0.468600
      3 C20         1.6130   -0.1010    1.1040 c3        1 AB0      0.321200
      4 O17         1.8030   -1.2340    1.9200 os        1 AB0     -0.417600
      5 C14         2.2090   -2.4150    1.2290 c3        1 AB0      0.116100
      6 C15         3.7390   -2.4320    1.1690 c3        1 AB0     -0.105400
      7 C10         4.1990   -3.7880    0.6630 c3        1 AB0      0.116100
      8 O11         5.6250   -3.8400    0.7440 os        1 AB0     -0.417600
      9 C05         6.1470   -5.0630    0.2200 c3        1 AB0      0.123100
     10 C06         7.6590   -4.9550    0.4210 c3        1 AB0     -0.052200
     11 C07         8.4270   -5.9340   -0.3800 c2        1 AB0     -0.151200
     12 C01         8.2210   -7.2530   -0.4140 c2        1 AB0     -0.205200
     13 C02         7.1640   -7.9920    0.3290 c3        1 AB0      0.163600
     14 O03         5.8600   -7.4620    0.1430 os        1 AB0     -0.399600
     15 C04         5.5720   -6.3040    0.9300 c3        1 AB0      0.113100
     16 C08         4.0350   -6.2640    1.0380 c3        1 AB0      0.153100
     17 O16         3.6630   -7.2780    1.9580 oh        1 AB0     -0.605800
     18 C09         3.5980   -4.8860    1.5470 c3        1 AB0      0.075100
     19 O12         2.1810   -4.8360    1.4750 os        1 AB0     -0.426600
     20 C13         1.6480   -3.6130    2.0280 c3        1 AB0      0.156100
     21 C18         0.1390   -3.7400    1.9220 c3        1 AB0     -0.200400
     22 C19        -0.5610   -3.3000    3.2250 c         1 AB0      0.916600
     23 O23        -1.5930   -2.5760    3.1070 o         1 AB0     -0.843800
     24 O24        -0.0910   -3.6940    4.3280 o         1 AB0     -0.843800
     25 H181       -0.1330   -4.8100    1.7380 hc        1 AB0      0.043700
     26 H182       -0.2440   -3.1270    1.0680 hc        1 AB0      0.043700
     27 H13         1.9560   -3.5320    3.1090 h1        1 AB0      0.093700
     28 H09         3.9340   -4.7500    2.6130 h1        1 AB0      0.066700
     29 H08         3.5700   -6.4820    0.0380 h1        1 AB0      0.061700
     30 H16         2.7390   -7.1060    2.1900 ho        1 AB0      0.429000
     31 H04         6.0090   -6.4050    1.9600 h1        1 AB0      0.063700
     32 H021        7.4230   -8.0340    1.4230 h1        1 AB0      0.051700
     33 H022        7.0700   -9.0420   -0.0670 h1        1 AB0      0.051700
     34 H01         8.8760   -7.8940   -1.0270 ha        1 AB0      0.117000
     35 H07         9.2500   -5.4970   -0.9710 ha        1 AB0      0.114000
     36 H061        7.9700   -3.9090    0.1510 hc        1 AB0      0.061200
     37 H062        7.8940   -5.0940    1.5120 hc        1 AB0      0.061200
     38 H05         5.9010   -5.1280   -0.8770 h1        1 AB0      0.053700
     39 H10         3.8790   -3.9370   -0.4060 h1        1 AB0      0.048700
     40 H151        4.1080   -1.6220    0.4920 hc        1 AB0      0.054200
     41 H152        4.1590   -2.2420    2.1900 hc        1 AB0      0.054200
     42 H14         1.7840   -2.4260    0.1870 h1        1 AB0      0.059700
     43 H201        1.4230    0.7390    1.8240 h2        1 AB0      0.046700
     44 H202        2.4850    0.0930    0.4250 h2        1 AB0      0.046700
     45 H221       -1.4420   -0.7820    0.1330 h1        1 AB0      0.055700
     46 H222       -1.0320    0.6420    1.2200 h1        1 AB0      0.055700
     47 H223       -0.7170   -1.0820    1.7980 h1        1 AB0      0.055700
@<TRIPOS>BOND
     1    1    2 1   
     2    1   45 1   
     3    1   46 1   
     4    1   47 1   
     5    2    3 1   
     6    3    4 1   
     7    3   43 1   
     8    3   44 1   
     9    4    5 1   
    10    5    6 1   
    11    5   20 1   
    12    5   42 1   
    13    6    7 1   
    14    6   40 1   
    15    6   41 1   
    16    7    8 1   
    17    7   18 1   
    18    7   39 1   
    19    8    9 1   
    20    9   10 1   
    21    9   15 1   
    22    9   38 1   
    23   10   11 1   
    24   10   36 1   
    25   10   37 1   
    26   11   12 2   
    27   11   35 1   
    28   12   13 1   
    29   12   34 1   
    30   13   14 1   
    31   13   32 1   
    32   13   33 1   
    33   14   15 1   
    34   15   16 1   
    35   15   31 1   
    36   16   17 1   
    37   16   18 1   
    38   16   29 1   
    39   17   30 1   
    40   18   19 1   
    41   18   28 1   
    42   19   20 1   
    43   20   21 1   
    44   20   27 1   
    45   21   22 1   
    46   21   25 1   
    47   21   26 1   
    48   22   23 1   
    49   22   24 1   
@<TRIPOS>SUBSTRUCTURE
     1 AB0         1 TEMP              0 ****  ****    0 ROOT
