@<TRIPOS>MOLECULE
molecule
   47    49     1     0     0
SMALL
bcc


@<TRIPOS>ATOM
      1 C22          0.0000     0.0000     0.0000 c3         1 AB0       0.120700
      2 O21          1.4210     0.0000     0.0000 os         1 AB0      -0.448600
      3 C20          1.9620     0.0000     1.3210 c3         1 AB0       0.316200
      4 O17          1.6060    -1.1450     2.0960 os         1 AB0      -0.416600
      5 C14          2.0090    -2.3600     1.4770 c3         1 AB0       0.104100
      6 C15          3.5260    -2.3640     1.2960 c3         1 AB0      -0.110400
      7 C10          3.9930    -3.7290     0.8040 c3         1 AB0       0.110100
      8 O11          5.4150    -3.7610     0.7540 os         1 AB0      -0.421600
      9 C05          5.9110    -4.9840     0.1840 c3         1 AB0       0.127100
     10 C06          7.4330    -4.8200     0.0900 c3         1 AB0      -0.043200
     11 C07          8.1660    -5.8870    -0.6620 c2         1 AB0      -0.155200
     12 C01          8.0280    -7.2070    -0.4830 c2         1 AB0      -0.208200
     13 C02          7.1220    -7.8540     0.5110 c3         1 AB0       0.173600
     14 O03          5.7750    -7.4210     0.3670 os         1 AB0      -0.392600
     15 C04          5.4740    -6.1910     1.0320 c3         1 AB0       0.084100
     16 C08          3.9530    -6.1780     1.2550 c3         1 AB0       0.161100
     17 O16          3.6110    -7.1730     2.2240 oh         1 AB0      -0.556800
     18 C09          3.4820    -4.8130     1.7480 c3         1 AB0       0.085100
     19 O12          2.0530    -4.7830     1.7880 os         1 AB0      -0.341600
     20 C13          1.5560    -3.5530     2.3300 c3         1 AB0       0.151100
     21 C18          0.0350    -3.6580     2.3890 c3         1 AB0      -0.165400
     22 C19         -0.4110    -4.8420     3.2020 c          1 AB0       0.897600
     23 O23         -1.7680    -4.9030     3.2200 o          1 AB0      -0.848300
     24 O24          0.3120    -5.6450     3.7720 o          1 AB0      -0.848300
     25 H181        -0.3510    -3.7560     1.3810 hc         1 AB0       0.048200
     26 H182        -0.3640    -2.7540     2.8330 hc         1 AB0       0.048200
     27 H13          1.9440    -3.4310     3.3340 h1         1 AB0       0.050700
     28 H09          3.8730    -4.6360     2.7430 h1         1 AB0       0.046700
     29 H08          3.4580    -6.4040     0.3180 h1         1 AB0       0.099700
     30 H16          4.1320    -7.0480     2.9990 ho         1 AB0       0.391000
     31 H04          5.9810    -6.1630     1.9890 h1         1 AB0       0.041700
     32 H021         7.4640    -7.6090     1.5090 h1         1 AB0       0.047700
     33 H022         7.1610    -8.9280     0.3730 h1         1 AB0       0.047700
     34 H01          8.6240    -7.8580    -1.1110 ha         1 AB0       0.117000
     35 H07          8.8700    -5.5630    -1.4180 ha         1 AB0       0.115000
     36 H061         7.6390    -3.8710    -0.3900 hc         1 AB0       0.056200
     37 H062         7.8290    -4.7880     1.0980 hc         1 AB0       0.056200
     38 H05          5.5080    -5.0940    -0.8160 h1         1 AB0       0.052700
     39 H10          3.5970    -3.9050    -0.1890 h1         1 AB0       0.047700
     40 H151         3.9990    -2.1460     2.2460 hc         1 AB0       0.051200
     41 H152         3.8020    -1.6090     0.5700 hc         1 AB0       0.051200
     42 H14          1.5420    -2.4320     0.5010 h1         1 AB0       0.052700
     43 H201         3.0420     0.0450     1.2510 h2         1 AB0       0.048200
     44 H202         1.6130     0.8870     1.8360 h2         1 AB0       0.048200
     45 H221        -0.3610     0.1220     1.0140 h1         1 AB0       0.035700
     46 H222        -0.3610     0.8170    -0.6130 h1         1 AB0       0.035700
     47 H223        -0.3610    -0.9390    -0.4020 h1         1 AB0       0.035700
@<TRIPOS>BOND
     1     1     2 1
     2     1    45 1
     3     1    46 1
     4     1    47 1
     5     2     3 1
     6     3     4 1
     7     3    43 1
     8     3    44 1
     9     4     5 1
    10     5     6 1
    11     5    20 1
    12     5    42 1
    13     6     7 1
    14     6    40 1
    15     6    41 1
    16     7     8 1
    17     7    18 1
    18     7    39 1
    19     8     9 1
    20     9    10 1
    21     9    15 1
    22     9    38 1
    23    10    11 1
    24    10    36 1
    25    10    37 1
    26    11    12 2
    27    11    35 1
    28    12    13 1
    29    12    34 1
    30    13    14 1
    31    13    32 1
    32    13    33 1
    33    14    15 1
    34    15    16 1
    35    15    31 1
    36    16    18 1
    37    16    29 1
    38    16    17 1
    39    17    30 1
    40    18    19 1
    41    18    28 1
    42    19    20 1
    43    20    21 1
    44    20    27 1
    45    21    22 1
    46    21    25 1
    47    21    26 1
    48    22    23 1
    49    22    24 1
@<TRIPOS>SUBSTRUCTURE
     1 AB0         1 TEMP              0 ****  ****    0 ROOT
