@<TRIPOS>MOLECULE
molecule
   94    97     1     0     0
SMALL
bcc


@<TRIPOS>ATOM
      1 C1           0.0000     0.0000     0.0000 c3         1 AB1       0.102000
      2 C2           0.1160    -0.0220     2.4860 c3         1 AB1       0.107000
      3 N1           1.5730    -0.0220     2.3500 n          1 AB1      -0.496800
      4 C3           2.1620     0.0000     1.1460 c          1 AB1       0.839500
      5 N2           1.4630     0.0000     0.0000 ns         1 AB1      -0.602900
      6 C4          10.6160     1.3080     4.5260 ca         1 AB1      -0.066300
      7 C5          11.1300     0.3100     5.3300 ca         1 AB1      -0.118000
      8 C6          12.4390     0.3800     5.7690 ca         1 AB1      -0.117500
      9 C7          13.2340     1.4490     5.4020 ca         1 AB1      -0.123000
     10 C8          12.7210     2.4480     4.5950 ca         1 AB1      -0.117500
     11 C9          11.4130     2.3750     4.1540 ca         1 AB1      -0.118000
     12 O1           3.3770     0.0100     1.0890 o          1 AB1      -0.699500
     13 C10          2.4050    -0.0380     3.5560 c3         1 AB1       0.088700
     14 C11          3.1690     1.2560     3.6580 c          1 AB1       0.665100
     15 N3           3.9070     1.5200     4.7530 ns         1 AB1      -0.551900
     16 C12          4.5380     2.8320     4.9150 c3         1 AB1       0.116700
     17 C13          3.3900    -1.2070     3.4790 c3         1 AB1      -0.008700
     18 C14          4.1460    -1.3250     4.8050 c3         1 AB1      -0.398600
     19 C15          2.6230    -2.5030     3.2120 c3         1 AB1      -0.398600
     20 O2           3.1200     2.0620     2.7510 o          1 AB1      -0.606100
     21 C16          0.0720     3.3640     4.7880 ca         1 AB1      -0.125500
     22 C17         -0.0850     4.4770     3.9820 ca         1 AB1      -0.131000
     23 C18          0.9770     5.3380     3.7780 ca         1 AB1      -0.125500
     24 C19          2.1950     5.0880     4.3830 ca         1 AB1      -0.118000
     25 C20          2.3530     3.9740     5.1840 ca         1 AB1      -0.066300
     26 C21          1.2910     3.1130     5.3890 ca         1 AB1      -0.118000
     27 C22          3.6830     3.6990     5.8400 c3         1 AB1      -0.054100
     28 C23          5.9310     2.6570     5.5230 c3         1 AB1      -0.085400
     29 C24          6.8450     1.9610     4.5130 c3         1 AB1       0.133100
     30 C25          8.2750     1.9290     5.0570 c3         1 AB1       0.095700
     31 N4           8.2980     1.1960     6.3250 ns         1 AB1      -0.579900
     32 C26          9.2690     1.4420     7.2280 c          1 AB1       0.646100
     33 C27          9.2940     0.6880     8.5320 c3         1 AB1       0.054400
     34 O3          10.4080     1.1230     9.3140 os         1 AB1      -0.285900
     35 C28         10.3780     0.4120    10.4710 ca         1 AB1       0.079100
     36 O4           6.3870     0.6240     4.3000 oh         1 AB1      -0.582800
     37 C29          9.1890     1.2320     4.0470 c3         1 AB1      -0.055100
     38 O5          10.1210     2.2720     6.9900 o          1 AB1      -0.570100
     39 C30         11.0470    -0.7990    10.5590 ca         1 AB1      -0.090800
     40 C31         11.0160    -1.5210    11.7370 ca         1 AB1      -0.128000
     41 C32         10.3180    -1.0360    12.8270 ca         1 AB1      -0.125000
     42 C33          9.6500     0.1720    12.7420 ca         1 AB1      -0.128000
     43 C34          9.6830     0.8990    11.5680 ca         1 AB1      -0.090800
     44 C35          8.9550     2.2160    11.4760 c3         1 AB1      -0.049800
     45 C36         11.8090    -1.3290     9.3710 c3         1 AB1      -0.049800
     46 C37         -0.5030    -0.7080     1.2630 c3         1 AB1      -0.139400
     47 H2          -0.3000    -0.6230    -0.8340 h1         1 AB1       0.057700
     48 H3          -0.3010     1.0360     0.0960 h1         1 AB1       0.057700
     49 H4          -0.1910     1.0160     2.4350 h1         1 AB1       0.059200
     50 H5          -0.1070    -0.6600     3.3330 h1         1 AB1       0.059200
     51 H8           1.9530     0.0000    -0.8730 hn         1 AB1       0.341500
     52 H30         10.5060    -0.5270     5.6200 ha         1 AB1       0.120500
     53 H31         12.8420    -0.4030     6.4010 ha         1 AB1       0.123000
     54 H32         14.2600     1.5040     5.7470 ha         1 AB1       0.124000
     55 H33         13.3450     3.2850     4.3050 ha         1 AB1       0.123000
     56 H34         11.0100     3.1570     3.5220 ha         1 AB1       0.120500
     57 H9           1.7750    -0.1550     4.4290 h1         1 AB1       0.058700
     58 H15          3.9890     0.8340     5.4780 hn         1 AB1       0.347500
     59 H16          4.6240     3.3130     3.9470 h1         1 AB1       0.089700
     60 H10          4.0960    -1.0320     2.6750 hc         1 AB1       0.109700
     61 H11          4.3870    -2.1830     5.4210 hc         1 AB1       0.118533
     62 H12          3.1510    -1.5960     5.1370 hc         1 AB1       0.118533
     63 H47          4.8470    -1.8290     4.1500 hc         1 AB1       0.118533
     64 H13          1.6970    -2.4970     3.7750 hc         1 AB1       0.118533
     65 H14          3.2260    -3.3490     3.5180 hc         1 AB1       0.118533
     66 H48          2.4020    -2.5810     2.1550 hc         1 AB1       0.118533
     67 H20         -0.7600     2.6890     4.9480 ha         1 AB1       0.123000
     68 H21         -1.0400     4.6730     3.5090 ha         1 AB1       0.123000
     69 H22          0.8540     6.2100     3.1480 ha         1 AB1       0.123000
     70 H23          3.0270     5.7630     4.2220 ha         1 AB1       0.125500
     71 H19          1.4140     2.2410     6.0190 ha         1 AB1       0.125500
     72 H17          3.5230     3.1790     6.7760 hc         1 AB1       0.049200
     73 H18          4.1920     4.6370     6.0290 hc         1 AB1       0.049200
     74 H24          5.8600     2.0550     6.4210 hc         1 AB1       0.055700
     75 H25          6.3420     3.6290     5.7720 hc         1 AB1       0.055700
     76 H26          6.8270     2.5030     3.5750 h1         1 AB1       0.050700
     77 H27          8.6220     2.9420     5.2190 h1         1 AB1       0.085700
     78 H35          7.6160     0.4860     6.5050 hn         1 AB1       0.324500
     79 H36          9.3840    -0.3730     8.3340 h1         1 AB1       0.047700
     80 H37          8.3760     0.8770     9.0760 h1         1 AB1       0.047700
     81 H1           6.6510     0.3340     3.4430 ho         1 AB1       0.401000
     82 H28          8.8950     0.1930     3.9520 hc         1 AB1       0.051200
     83 H29          9.1040     1.7210     3.0850 hc         1 AB1       0.051200
     84 H41         11.5390    -2.4670    11.8060 ha         1 AB1       0.132500
     85 H42         10.2920    -1.6040    13.7490 ha         1 AB1       0.130000
     86 H43          9.1050     0.5510    13.5980 ha         1 AB1       0.132500
     87 H44          8.9080     2.6720    12.4570 hc         1 AB1       0.048367
     88 H45          9.4830     2.8730    10.7960 hc         1 AB1       0.048367
     89 H46          7.9500     2.0470    11.1080 hc         1 AB1       0.048367
     90 H38         12.5650    -2.0270     9.7100 hc         1 AB1       0.048367
     91 H39         12.2850    -0.5060     8.8510 hc         1 AB1       0.048367
     92 H40         11.1260    -1.8340     8.7000 hc         1 AB1       0.048367
     93 H6          -1.5830    -0.6360     1.3140 hc         1 AB1       0.057700
     94 H7          -0.2020    -1.7490     1.2400 hc         1 AB1       0.057700
@<TRIPOS>BOND
     1     1     5 1
     2     1    46 1
     3     1    47 1
     4     1    48 1
     5     2     3 1
     6     2    46 1
     7     2    49 1
     8     2    50 1
     9     3     4 1
    10     3    13 1
    11     4     5 1
    12     4    12 2
    13     5    51 1
    14     6     7 ar
    15     6    11 ar
    16     6    37 1
    17     7     8 ar
    18     7    52 1
    19     8     9 ar
    20     8    53 1
    21     9    10 ar
    22     9    54 1
    23    10    11 ar
    24    10    55 1
    25    11    56 1
    26    13    14 1
    27    13    17 1
    28    13    57 1
    29    14    15 1
    30    14    20 2
    31    15    16 1
    32    15    58 1
    33    16    27 1
    34    16    28 1
    35    16    59 1
    36    17    18 1
    37    17    19 1
    38    17    60 1
    39    18    61 1
    40    18    62 1
    41    18    63 1
    42    19    64 1
    43    19    65 1
    44    19    66 1
    45    21    22 ar
    46    21    26 ar
    47    21    67 1
    48    22    23 ar
    49    22    68 1
    50    23    24 ar
    51    23    69 1
    52    24    25 ar
    53    24    70 1
    54    25    26 ar
    55    25    27 1
    56    26    71 1
    57    27    72 1
    58    27    73 1
    59    28    29 1
    60    28    74 1
    61    28    75 1
    62    29    30 1
    63    29    36 1
    64    29    76 1
    65    30    31 1
    66    30    37 1
    67    30    77 1
    68    31    32 1
    69    31    78 1
    70    32    33 1
    71    32    38 2
    72    33    34 1
    73    33    79 1
    74    33    80 1
    75    34    35 1
    76    35    39 ar
    77    35    43 ar
    78    36    81 1
    79    37    82 1
    80    37    83 1
    81    39    40 ar
    82    39    45 1
    83    40    41 ar
    84    40    84 1
    85    41    42 ar
    86    41    85 1
    87    42    43 ar
    88    42    86 1
    89    43    44 1
    90    44    87 1
    91    44    88 1
    92    44    89 1
    93    45    90 1
    94    45    91 1
    95    45    92 1
    96    46    93 1
    97    46    94 1
@<TRIPOS>SUBSTRUCTURE
     1 AB1         1 TEMP              0 ****  ****    0 ROOT
