@<TRIPOS>MOLECULE
molecule
   88    92     1     0     0
SMALL
bcc


@<TRIPOS>ATOM
      1 C1           0.0000     0.0000     0.0000 c3         1 AB2       0.101700
      2 O1           1.4290     0.0000     0.0000 os         1 AB2      -0.287900
      3 C2           1.8220     0.0000     1.3010 ca         1 AB2       0.172100
      4 C3           3.1720     0.0010     1.6200 ca         1 AB2      -0.213000
      5 C4           3.5680     0.0010     2.9430 ca         1 AB2       0.003000
      6 C5           2.6200     0.0000     3.9500 ca         1 AB2      -0.360500
      7 C6           1.2740     0.0000     3.6350 ca         1 AB2       0.003000
      8 C7           0.8720     0.0060     2.3140 ca         1 AB2      -0.213000
      9 S1           3.1290     0.0020     5.6370 sy         1 AB2       1.424200
     10 O2           4.4490    -0.5240     5.6430 o          1 AB2      -0.634800
     11 O3           2.0310    -0.5240     6.3720 o          1 AB2      -0.634800
     12 N1           3.2720     1.5820     6.1110 n3         1 AB2      -0.811500
     13 C8           2.0930     2.3160     6.5760 c3         1 AB2       0.239800
     14 C9           2.0050     2.2270     8.1010 c3         1 AB2      -0.095700
     15 C10          3.1900     2.9670     8.7240 c3         1 AB2      -0.088100
     16 C11          0.6990     2.8670     8.5750 c3         1 AB2      -0.088100
     17 C12          4.5770     2.2450     6.0640 c3         1 AB2       0.214800
     18 C13          4.7220     2.9940     4.7380 c3         1 AB2       0.105100
     19 O4           3.7730     4.0600     4.6880 oh         1 AB2      -0.605800
     20 C14          6.1360     3.5660     4.6270 c3         1 AB2       0.058000
     21 C15          6.3540     4.6070     5.7270 c3         1 AB2      -0.043100
     22 C16          7.7940     5.0530     5.7200 ca         1 AB2      -0.104300
     23 C17          8.1570     6.2060     5.0490 ca         1 AB2      -0.118500
     24 C18          9.4770     6.6140     5.0420 ca         1 AB2      -0.122500
     25 C19         10.4350     5.8700     5.7050 ca         1 AB2      -0.121000
     26 C20         10.0720     4.7170     6.3760 ca         1 AB2      -0.122500
     27 C21          8.7500     4.3100     6.3870 ca         1 AB2      -0.118500
     28 N2           6.3060     4.1970     3.3170 na         1 AB2       0.129400
     29 C22          5.9580     5.4650     2.9960 cc         1 AB2      -0.258600
     30 C23          6.2890     5.6300     1.6940 cd         1 AB2       0.255600
     31 C24          6.1010     6.8740     0.8660 c3         1 AB2       0.169100
     32 O5           5.4940     7.9110     1.6820 os         1 AB2      -0.464900
     33 C25          5.2300     9.1190     1.1490 c          1 AB2       0.762100
     34 O6           5.4990     9.3410    -0.0150 o          1 AB2      -0.605000
     35 N3           4.6670    10.0820     1.9060 ns         1 AB2      -0.563900
     36 C26          4.3800    11.3960     1.3270 c3         1 AB2       0.180000
     37 C27          3.2580    12.0980     2.1210 c3         1 AB2       0.133100
     38 O7           2.4870    12.9460     1.2680 oh         1 AB2      -0.582800
     39 C28          4.0520    12.9260     3.1540 c3         1 AB2      -0.059100
     40 C29          5.3970    13.1810     2.5060 ca         1 AB2      -0.081300
     41 C30          6.3790    14.1090     2.8130 ca         1 AB2      -0.120000
     42 C31          7.5430    14.1590     2.0730 ca         1 AB2      -0.118000
     43 C32          7.7310    13.2790     1.0230 ca         1 AB2      -0.134000
     44 C33          6.7550    12.3530     0.7160 ca         1 AB2      -0.086000
     45 C34          5.5860    12.3010     1.4550 ca         1 AB2      -0.110300
     46 N4           6.8170     4.4690     1.2870 nd         1 AB2      -0.354000
     47 N5           6.8180     3.6430     2.2730 nc         1 AB2      -0.201800
     48 H11         -0.3610     0.8890     0.5030 h1         1 AB2       0.048367
     49 H12         -0.3610    -0.0080    -1.0210 h1         1 AB2       0.048367
     50 H13A        -0.3610    -0.8800     0.5180 h1         1 AB2       0.048367
     51 H3           3.9150     0.0010     0.8320 ha         1 AB2       0.153000
     52 H4           4.6230     0.0010     3.1930 ha         1 AB2       0.153000
     53 H6           0.5340     0.0030     4.4260 ha         1 AB2       0.153000
     54 H7          -0.1830     0.0070     2.0680 ha         1 AB2       0.153000
     55 H81          2.1730     3.3550     6.2790 h1         1 AB2       0.058200
     56 H82          1.2020     1.8830     6.1380 h1         1 AB2       0.058200
     57 H9           2.0290     1.1870     8.4040 hc         1 AB2       0.071700
     58 H101         2.9740     3.1870     9.7620 hc         1 AB2       0.035533
     59 H102         3.3620     3.8910     8.1860 hc         1 AB2       0.035533
     60 H103         4.0760     2.3450     8.6640 hc         1 AB2       0.035533
     61 H111        -0.1390     2.3790     8.0910 hc         1 AB2       0.035533
     62 H112         0.6100     2.7540     9.6490 hc         1 AB2       0.035533
     63 H113         0.6990     3.9200     8.3210 hc         1 AB2       0.035533
     64 H121         5.3620     1.5030     6.1470 h1         1 AB2       0.081700
     65 H122         4.6550     2.9460     6.8860 h1         1 AB2       0.081700
     66 H13          4.5430     2.3120     3.9160 h1         1 AB2       0.056700
     67 HO4          3.2330     3.9650     3.9210 ho         1 AB2       0.414000
     68 H14          6.8590     2.7660     4.7390 h1         1 AB2       0.102700
     69 H151         5.7110     5.4600     5.5490 hc         1 AB2       0.070700
     70 H152         6.1160     4.1700     6.6900 hc         1 AB2       0.070700
     71 H17          7.4070     6.7890     4.5300 ha         1 AB2       0.132000
     72 H18          9.7620     7.5180     4.5170 ha         1 AB2       0.133000
     73 H19         11.4700     6.1900     5.6980 ha         1 AB2       0.132000
     74 H20         10.8230     4.1340     6.8970 ha         1 AB2       0.133000
     75 H21          8.4660     3.4070     6.9120 ha         1 AB2       0.132000
     76 H22          5.3150     6.1150     3.5760 h4         1 AB2       0.195000
     77 H241         7.0630     7.2160     0.5040 h1         1 AB2       0.070200
     78 H242         5.4560     6.6530     0.0240 h1         1 AB2       0.070200
     79 HN3          4.4150     9.8880     2.8550 hn         1 AB2       0.319500
     80 H26          4.0960    11.2990     0.2860 h1         1 AB2       0.104700
     81 H27          2.6300    11.3690     2.6180 h1         1 AB2       0.041700
     82 HO7          1.5820    12.9150     1.5290 ho         1 AB2       0.406000
     83 H281         3.5490    13.8690     3.3280 hc         1 AB2       0.062700
     84 H282         4.1890    12.3450     4.0580 hc         1 AB2       0.062700
     85 H30          6.2320    14.7990     3.6360 ha         1 AB2       0.128000
     86 H31          8.3090    14.8860     2.3140 ha         1 AB2       0.131000
     87 H32          8.6440    13.3170     0.4410 ha         1 AB2       0.133000
     88 H33          6.9030    11.6640    -0.1070 ha         1 AB2       0.150000
@<TRIPOS>BOND
     1     1     2 1
     2     1    48 1
     3     1    49 1
     4     1    50 1
     5     2     3 1
     6     3     4 ar
     7     3     8 ar
     8     4     5 ar
     9     4    51 1
    10     5     6 ar
    11     5    52 1
    12     6     7 ar
    13     6     9 1
    14     7     8 ar
    15     7    53 1
    16     8    54 1
    17     9    10 2
    18     9    11 2
    19     9    12 1
    20    12    13 1
    21    12    17 1
    22    13    14 1
    23    13    55 1
    24    13    56 1
    25    14    15 1
    26    14    16 1
    27    14    57 1
    28    15    58 1
    29    15    59 1
    30    15    60 1
    31    16    61 1
    32    16    62 1
    33    16    63 1
    34    17    18 1
    35    17    64 1
    36    17    65 1
    37    18    19 1
    38    18    20 1
    39    18    66 1
    40    19    67 1
    41    20    21 1
    42    20    28 1
    43    20    68 1
    44    21    22 1
    45    21    69 1
    46    21    70 1
    47    22    23 ar
    48    22    27 ar
    49    23    24 ar
    50    23    71 1
    51    24    25 ar
    52    24    72 1
    53    25    26 ar
    54    25    73 1
    55    26    27 ar
    56    26    74 1
    57    27    75 1
    58    28    29 1
    59    28    47 1
    60    29    30 2
    61    29    76 1
    62    30    31 1
    63    30    46 1
    64    31    32 1
    65    31    77 1
    66    31    78 1
    67    32    33 1
    68    33    34 2
    69    33    35 1
    70    35    36 1
    71    35    79 1
    72    36    37 1
    73    36    45 1
    74    36    80 1
    75    37    38 1
    76    37    39 1
    77    37    81 1
    78    38    82 1
    79    39    40 1
    80    39    83 1
    81    39    84 1
    82    40    41 ar
    83    40    45 ar
    84    41    42 ar
    85    41    85 1
    86    42    43 ar
    87    42    86 1
    88    43    44 ar
    89    43    87 1
    90    44    45 ar
    91    44    88 1
    92    46    47 2
@<TRIPOS>SUBSTRUCTURE
     1 AB2         1 TEMP              0 ****  ****    0 ROOT
