@<TRIPOS>MOLECULE
AB3
   38    40     1     0     0
SMALL
bcc


@<TRIPOS>ATOM
      1 C20          0.0000     0.0000     0.0000 c3         1 AB3      -0.012100
      2 C14          1.5300     0.0000     0.0000 c3         1 AB3      -0.045300
      3 C19          2.0400     0.0000     1.4440 c3         1 AB3      -0.012100
      4 C21          2.0410    -1.2500    -0.7200 c3         1 AB3      -0.012100
      5 N11          2.0180     1.1970    -0.6900 na         1 AB3       0.388200
      6 N15          1.2110     2.1860    -1.2610 nc         1 AB3      -0.621100
      7 C7           3.3300     1.5210    -0.8700 ca         1 AB3       0.349800
      8 N3           4.4880     0.9470    -0.5450 nb         1 AB3      -0.695000
      9 C6           5.6310     1.5090    -0.8700 ca         1 AB3       0.706900
     10 N5           5.7030     2.6520    -1.5290 nb         1 AB3      -0.744000
     11 C2           4.6030     3.2990    -1.9020 ca         1 AB3       0.614200
     12 N1           4.6830     4.4930    -2.5910 nv         1 AB3      -0.545500
     13 C4           3.3560     2.7370    -1.5790 ca         1 AB3      -0.547500
     14 C13          1.9610     3.1180    -1.7990 cd         1 AB3       0.477500
     15 C18          1.4830     4.3340    -2.5000 ca         1 AB3      -0.076900
     16 C28          0.4450     5.0880    -1.9600 ca         1 AB3      -0.104000
     17 C27          2.0690     4.7220    -3.7050 ca         1 AB3      -0.128000
     18 C30          1.6220     5.8540    -4.3560 ca         1 AB3      -0.080000
     19 C26          0.5940     6.6050    -3.8170 ca         1 AB3      -0.149000
     20 C29          0.0070     6.2260    -2.6180 ca         1 AB3       0.128100
     21 O33         -1.0030     6.9690    -2.0910 oh         1 AB3      -0.497100
     22 H201        -0.3610     0.0190    -1.0210 hc         1 AB3       0.019367
     23 H202        -0.3610    -0.8940     0.4940 hc         1 AB3       0.019367
     24 H203        -0.3610     0.8750     0.5280 hc         1 AB3       0.019367
     25 H191         1.4890    -0.7320     2.0210 hc         1 AB3       0.019367
     26 H192         3.0940    -0.2500     1.4550 hc         1 AB3       0.019367
     27 H193         1.8970     0.9830     1.8770 hc         1 AB3       0.019367
     28 H211         3.0960    -1.3800    -0.5130 hc         1 AB3       0.019367
     29 H212         1.4950    -2.1170    -0.3700 hc         1 AB3       0.019367
     30 H213         1.8930    -1.1370    -1.7880 hc         1 AB3       0.019367
     31 H6           6.5520     1.0150    -0.5850 h5         1 AB3      -0.005900
     32 HN11         4.0200     5.2210    -2.4090 hn         1 AB3       0.283300
     33 HN12         5.4320     4.6490    -3.2370 hn         1 AB3       0.283300
     34 H28         -0.0130     4.7910    -1.0240 ha         1 AB3       0.129000
     35 H27          2.8740     4.1350    -4.1300 ha         1 AB3       0.119000
     36 H30          2.0770     6.1550    -5.2920 ha         1 AB3       0.105000
     37 H26          0.2480     7.4950    -4.3300 ha         1 AB3       0.113000
     38 H33         -1.7790     6.8610    -2.6160 ho         1 AB3       0.405000
@<TRIPOS>BOND
     1     1     2 1   
     2     1    22 1   
     3     1    23 1   
     4     1    24 1   
     5     2     3 1   
     6     2     4 1   
     7     2     5 1   
     8     3    25 1   
     9     3    26 1   
    10     3    27 1   
    11     4    28 1   
    12     4    29 1   
    13     4    30 1   
    14     5     6 1   
    15     5     7 1   
    16     6    14 2   
    17     7     8 ar  
    18     7    13 ar  
    19     8     9 ar  
    20     9    10 ar  
    21     9    31 1   
    22    10    11 ar  
    23    11    12 1   
    24    11    13 ar  
    25    12    32 1   
    26    12    33 1   
    27    13    14 1   
    28    14    15 1   
    29    15    16 ar  
    30    15    17 ar  
    31    16    20 ar  
    32    16    34 1   
    33    17    18 ar  
    34    17    35 1   
    35    18    19 ar  
    36    18    36 1   
    37    19    20 ar  
    38    19    37 1   
    39    20    21 1   
    40    21    38 1   
@<TRIPOS>SUBSTRUCTURE
     1 AB3         1 TEMP              0 ****  ****    0 ROOT
