@<TRIPOS>MOLECULE
AB4
   45    48     1     0     0
SMALL
bcc


@<TRIPOS>ATOM
      1 Cl22         0.0000     0.0000     0.0000 cl         1 AB4       0.018600
      2 C10          1.7360     0.0000     0.0000 ca         1 AB4       0.047400
      3 C19          2.4280     0.0000     1.1980 ca         1 AB4      -0.118000
      4 C23          3.8100    -0.0000     1.1980 ca         1 AB4      -0.037000
      5 C20          4.5010    -0.0080     0.0000 ca         1 AB4      -0.075600
      6 Cl24         6.2380    -0.0080     0.0000 cl         1 AB4      -0.005400
      7 C7           3.8100    -0.0150    -1.1980 ca         1 AB4       0.016000
      8 C2           2.4270    -0.0140    -1.1980 ca         1 AB4      -0.153500
      9 S1           1.5470    -0.0230    -2.7230 sy         1 AB4       1.037200
     10 O8           0.5770     1.0110    -2.6150 o          1 AB4      -0.571800
     11 O9           2.5340    -0.1210    -3.7390 o          1 AB4      -0.571800
     12 N5           0.6880    -1.4380    -2.7920 nu         1 AB4      -0.395500
     13 C14          1.3630    -2.6610    -2.8920 ca         1 AB4       0.049600
     14 C12          0.9370    -3.6130    -3.8040 ca         1 AB4      -0.080000
     15 C21          2.4580    -2.9180    -2.0760 ca         1 AB4      -0.135000
     16 C18          3.1280    -4.1230    -2.1710 ca         1 AB4      -0.156000
     17 C11          2.7120    -5.0820    -3.0790 ca         1 AB4       0.141100
     18 O25          3.3730    -6.2660    -3.1690 oh         1 AB4      -0.476100
     19 C3           1.6140    -4.8270    -3.9060 cp         1 AB4      -0.016000
     20 C4           1.1640    -5.8480    -4.8790 cp         1 AB4      -0.069000
     21 C6           0.2140    -6.8270    -4.5020 ca         1 AB4       0.021000
     22 C27         -0.3340    -6.8480    -3.2100 ca         1 AB4      -0.100000
     23 C29         -1.2510    -7.8000    -2.8840 ca         1 AB4      -0.089000
     24 C30         -1.6600    -8.7520    -3.8150 ca         1 AB4      -0.114000
     25 C28         -1.1550    -8.7570    -5.0790 ca         1 AB4      -0.076000
     26 C15         -0.2050    -7.7900    -5.4520 ca         1 AB4      -0.071000
     27 C17          0.3370    -7.7670    -6.7500 ca         1 AB4      -0.042000
     28 C16          1.2540    -6.8210    -7.0910 ca         1 AB4      -0.188000
     29 C13          1.6750    -5.8610    -6.1710 ca         1 AB4       0.165100
     30 O26          2.5920    -4.9290    -6.5410 oh         1 AB4      -0.467100
     31 H19          1.8860     0.0060     2.1360 ha         1 AB4       0.123000
     32 H23          4.3520    -0.0000     2.1360 ha         1 AB4       0.117000
     33 H7           4.3520    -0.0240    -2.1360 ha         1 AB4       0.147000
     34 H5          -0.3120    -1.4160    -2.8030 hn         1 AB4       0.349800
     35 H12          0.0860    -3.4100    -4.4430 ha         1 AB4       0.116000
     36 H21          2.7880    -2.1720    -1.3640 ha         1 AB4       0.121000
     37 H18          3.9820    -4.3180    -1.5320 ha         1 AB4       0.109000
     38 H25          4.2970    -6.1190    -3.0510 ho         1 AB4       0.401000
     39 H27         -0.0250    -6.1150    -2.4750 ha         1 AB4       0.115000
     40 H29         -1.6690    -7.8180    -1.8840 ha         1 AB4       0.099000
     41 H30         -2.3910    -9.4980    -3.5290 ha         1 AB4       0.101000
     42 H28         -1.4820    -9.5030    -5.7930 ha         1 AB4       0.103000
     43 H17          0.0230    -8.5040    -7.4800 ha         1 AB4       0.104000
     44 H16          1.6640    -6.8130    -8.0940 ha         1 AB4       0.107000
     45 H26          2.7270    -4.9730    -7.4730 ho         1 AB4       0.400000
@<TRIPOS>BOND
     1     1     2 1   
     2     2     3 ar  
     3     2     8 ar  
     4     3     4 ar  
     5     3    31 1   
     6     4     5 ar  
     7     4    32 1   
     8     5     6 1   
     9     5     7 ar  
    10     7     8 ar  
    11     7    33 1   
    12     8     9 1   
    13     9    10 2   
    14     9    11 2   
    15     9    12 1   
    16    12    13 1   
    17    12    34 1   
    18    13    14 ar  
    19    13    15 ar  
    20    14    19 ar  
    21    14    35 1   
    22    15    16 ar  
    23    15    36 1   
    24    16    17 ar  
    25    16    37 1   
    26    17    18 1   
    27    17    19 ar  
    28    18    38 1   
    29    19    20 1   
    30    20    21 ar  
    31    20    29 ar  
    32    21    22 ar  
    33    21    26 ar  
    34    22    23 ar  
    35    22    39 1   
    36    23    24 ar  
    37    23    40 1   
    38    24    25 ar  
    39    24    41 1   
    40    25    26 ar  
    41    25    42 1   
    42    26    27 ar  
    43    27    28 ar  
    44    27    43 1   
    45    28    29 ar  
    46    28    44 1   
    47    29    30 1   
    48    30    45 1   
@<TRIPOS>SUBSTRUCTURE
     1 AB4         1 TEMP              0 ****  ****    0 ROOT
