@<TRIPOS>MOLECULE
ABB
   58    60     1     0     0
SMALL
bcc


@<TRIPOS>ATOM
      1 N1           0.0000     0.0000     0.0000 n          1 ABB      -0.130800
      2 C54          1.4740     0.0000     0.0000 c3         1 ABB       0.032000
      3 C53         -0.4720     0.5740     1.2680 c3         1 ABB      -0.033300
      4 C52          0.7770     0.9150     2.1080 c3         1 ABB      -0.093400
      5 C51          1.8700     0.0000     1.4970 c3         1 ABB       0.204100
      6 CP          -1.2730     1.8250     1.0100 c          1 ABB       0.543100
      7 OP          -1.0480     2.4970     0.0260 o          1 ABB      -0.615100
      8 N           -2.2390     2.1970     1.8720 ns         1 ABB      -0.202900
      9 CA          -3.0160     3.4120     1.6210 c3         1 ABB       0.025700
     10 CB          -4.4190     3.2490     2.2080 c3         1 ABB      -0.208400
     11 CG          -5.1120     2.0560     1.5490 c3         1 ABB       0.014600
     12 CD          -6.5150     1.8920     2.1360 c3         1 ABB       0.164800
     13 NE          -7.1790     0.7490     1.5060 nu         1 ABB      -0.486200
     14 CZ          -8.4590     0.4060     1.8750 c2         1 ABB       0.244100
     15 NH1         -9.0800     1.0990     2.7870 n2         1 ABB      -0.626100
     16 NH2         -9.0810    -0.6670     1.2840 nz         1 ABB       0.198400
     17 N5          -3.1270     6.3000     0.6070 nc         1 ABB      -0.433100
     18 C5          -2.4680     5.9310     1.6840 cd         1 ABB       0.316200
     19 S5          -1.7690     7.4760     2.2480 ss         1 ABB      -0.191100
     20 C61         -3.1710     7.5660     0.1850 ca         1 ABB       0.020400
     21 C62         -2.4460     8.5020     0.9670 ca         1 ABB       0.038900
     22 C63         -2.3900     9.8410     0.6550 ca         1 ABB      -0.051000
     23 C64         -3.0620    10.3060    -0.4590 ca         1 ABB      -0.052000
     24 C65         -3.7830     9.4130    -1.2440 ca         1 ABB      -0.108000
     25 C66         -3.8450     8.0900    -0.9480 ca         1 ABB      -0.024000
     26 O1           1.8010    -1.3180     2.0450 oh         1 ABB      -0.581800
     27 C1          -0.7850    -0.4470    -1.0000 c          1 ABB       0.624100
     28 C2          -0.1640    -1.0090    -2.2520 c3         1 ABB      -0.067100
     29 O2          -1.9930    -0.3980    -0.8910 o          1 ABB      -0.696100
     30 C           -2.3340     4.5880     2.2700 c          1 ABB       0.566800
     31 H541         1.8490    -0.8910    -0.4880 h1         1 ABB       0.035700
     32 H542         1.8490     0.8910    -0.4880 h1         1 ABB       0.035700
     33 HC53        -1.0780    -0.1530     1.7940 h1         1 ABB       0.036700
     34 H521         0.1530     0.2930     2.7390 hc         1 ABB       0.069200
     35 H522         0.9450     1.9550     2.3620 hc         1 ABB       0.069200
     36 HC51         2.8530     0.4330     1.6340 h1         1 ABB       0.021700
     37 H           -2.5960     1.2960     2.1220 hn         1 ABB       0.180500
     38 HCA         -3.0880     3.5800     0.5530 h1         1 ABB       0.060700
     39 HCB1        -4.3210     3.5790     1.1810 hc         1 ABB       0.084200
     40 HCB2        -4.9730     4.0550     2.6740 hc         1 ABB       0.084200
     41 HCG1        -5.1850     2.2240     0.4820 hc         1 ABB       0.023700
     42 HCG2        -4.5370     1.1570     1.7340 hc         1 ABB       0.023700
     43 HCD1        -7.0910     2.7910     1.9510 h1         1 ABB       0.035200
     44 HCD2        -6.4430     1.7240     3.2040 h1         1 ABB       0.035200
     45 HNE         -6.7040     0.2220     0.8000 hn         1 ABB       0.311800
     46 HH1         -8.6280     1.8800     3.2180 hn         1 ABB       0.385400
     47 HH21       -10.0030    -0.7670     1.6600 hn         1 ABB       0.223467
     48 HH22        -8.5550    -1.4990     1.4650 hn         1 ABB       0.223467
     49 HC63        -1.8250    10.5240     1.2770 ha         1 ABB       0.122000
     50 HC64        -3.0290    11.3570    -0.7170 ha         1 ABB       0.115000
     51 HC65        -4.3080     9.7840    -2.1160 ha         1 ABB       0.112000
     52 HC66        -4.4160     7.4250    -1.5850 ha         1 ABB       0.108000
     53 HO1          2.6040    -1.5110     2.5010 ho         1 ABB       0.402000
     54 HC21         0.4940    -0.2700    -2.6920 hc         1 ABB       0.027367
     55 HC22         0.4040    -1.8980    -2.0060 hc         1 ABB       0.027367
     56 HC23        -0.9440    -1.2640    -2.9590 hc         1 ABB       0.027367
     57 O           -1.6750     4.4280     3.2750 o          1 ABB      -0.493100
     58 HH23        -9.1380    -0.5170     0.2960 hn         1 ABB       0.223467
@<TRIPOS>BOND
     1     1     2 1   
     2     1     3 1   
     3     1    27 1   
     4     2     5 1   
     5     2    31 1   
     6     2    32 1   
     7     3     4 1   
     8     3     6 1   
     9     3    33 1   
    10     4     5 1   
    11     4    34 1   
    12     4    35 1   
    13     5    26 1   
    14     5    36 1   
    15     6     7 2   
    16     6     8 1   
    17     8     9 1   
    18     8    37 1   
    19     9    10 1   
    20     9    30 1   
    21     9    38 1   
    22    10    11 1   
    23    10    39 1   
    24    10    40 1   
    25    11    12 1   
    26    11    41 1   
    27    11    42 1   
    28    12    13 1   
    29    12    43 1   
    30    12    44 1   
    31    13    14 1   
    32    13    45 1   
    33    14    15 2   
    34    14    16 1   
    35    15    46 1   
    36    16    47 1   
    37    16    48 1   
    38    16    58 1   
    39    17    18 2   
    40    17    20 1   
    41    18    19 1   
    42    18    30 1   
    43    19    21 1   
    44    20    21 ar  
    45    20    25 ar  
    46    21    22 ar  
    47    22    23 ar  
    48    22    49 1   
    49    23    24 ar  
    50    23    50 1   
    51    24    25 ar  
    52    24    51 1   
    53    25    52 1   
    54    26    53 1   
    55    27    28 1   
    56    27    29 2   
    57    28    54 1   
    58    28    55 1   
    59    28    56 1   
    60    30    57 2   
@<TRIPOS>SUBSTRUCTURE
     1 ABB         1 TEMP              0 ****  ****    0 ROOT
