@<TRIPOS>MOLECULE
ABI
   22    23     1     0     0
SMALL
bcc


@<TRIPOS>ATOM
      1 C1           0.0000     0.0000     0.0000 ca         1 ABI      -0.230900
      2 C2           1.4010     0.0000     0.0000 ca         1 ABI      -0.089000
      3 C3           2.0930     0.0000     1.1740 ca         1 ABI       0.033000
      4 C4           1.4050     0.0000     2.3930 ca         1 ABI       0.187400
      5 C5          -0.0020     0.0010     2.4000 ca         1 ABI      -0.288200
      6 C6          -0.6990     0.0060     1.2050 ca         1 ABI       0.042000
      7 C7          -0.7370    -0.0010    -1.2800 ce         1 ABI      -0.021200
      8 C8           0.7650     0.0000     4.4700 cc         1 ABI       0.407700
      9 N1          -2.0700    -0.0000    -1.2820 nz         1 ABI       0.178400
     10 N2          -0.0700    -0.0020    -2.4330 nv         1 ABI       0.288900
     11 N3           1.8060    -0.0010     3.6890 nd         1 ABI      -0.467100
     12 N4          -0.3760     0.0010     3.7310 na         1 ABI       0.287700
     13 HC2          1.9380    -0.0050    -0.9410 ha         1 ABI       0.121000
     14 HC3          3.1760    -0.0000     1.1630 ha         1 ABI       0.161000
     15 HC6         -1.7830     0.0060     1.2070 ha         1 ABI       0.091000
     16 HC8          0.8020     0.0010     5.5530 h5         1 ABI       0.069800
     17 HH11        -2.4040     0.8190    -0.8140 hn         1 ABI       0.246467
     18 HH12        -2.4020    -0.0030    -2.2270 hn         1 ABI       0.246467
     19 HH21         0.9310    -0.0020    -2.4330 hn         1 ABI       0.162200
     20 HH22        -0.5700    -0.0030    -3.3010 hn         1 ABI       0.162200
     21 HN4         -1.3120     0.0020     4.0840 hn         1 ABI       0.165700
     22 H13         -2.4050    -0.8150    -0.8090 hn         1 ABI       0.246467
@<TRIPOS>BOND
     1     1     2 ar  
     2     1     6 ar  
     3     1     7 1   
     4     2     3 ar  
     5     2    13 1   
     6     3     4 ar  
     7     3    14 1   
     8     4     5 ar  
     9     4    11 1   
    10     5     6 ar  
    11     5    12 1   
    12     6    15 1   
    13     7     9 1   
    14     7    10 2   
    15     8    11 2   
    16     8    12 1   
    17     8    16 1   
    18     9    17 1   
    19     9    18 1   
    20     9    22 1   
    21    10    19 1   
    22    10    20 1   
    23    12    21 1   
@<TRIPOS>SUBSTRUCTURE
     1 ABI         1 TEMP              0 ****  ****    0 ROOT
