@<TRIPOS>MOLECULE
molecule
   35    37     1     0     0
SMALL
bcc


@<TRIPOS>ATOM
      1 C19          0.0000     0.0000     0.0000 c3         1 ABJ      -0.105100
      2 C14          1.5290     0.0000     0.0000 c3         1 ABJ       0.071000
      3 C20          2.0170     0.0000     1.4430 c3         1 ABJ      -0.105100
      4 N11          2.0110     1.2050    -0.7060 na         1 ABJ       0.101200
      5 N15          2.3020     2.2450    -0.1090 nc         1 ABJ      -0.527100
      6 C7           2.1500     1.3470    -2.0350 ca         1 ABJ       0.441800
      7 N3           1.9620     0.5310    -3.0940 nb         1 ABJ      -0.794000
      8 C6           2.2040     0.9470    -4.3220 ca         1 ABJ       0.739900
      9 N5           2.6450     2.1880    -4.5540 nb         1 ABJ      -0.849000
     10 C2           2.8530     3.0630    -3.5600 ca         1 ABJ       0.786200
     11 N1           3.2790     4.2730    -3.8620 nv         1 ABJ      -0.982500
     12 C4           2.6110     2.6530    -2.2460 ca         1 ABJ      -0.483500
     13 C13          2.6790     3.2070    -0.9600 cd         1 ABJ       0.384500
     14 C18          3.0980     4.4890    -0.5970 ca         1 ABJ      -0.073900
     15 C28          2.3630     5.2500     0.3230 ca         1 ABJ      -0.124000
     16 C27          4.2840     5.0200    -1.0940 ca         1 ABJ      -0.134000
     17 C30          4.7200     6.2930    -0.7040 ca         1 ABJ      -0.124000
     18 C26          3.9860     7.0460     0.2010 ca         1 ABJ      -0.150000
     19 C29          2.8040     6.5230     0.7170 ca         1 ABJ       0.099100
     20 O33          2.0870     7.2700     1.5950 oh         1 ABJ      -0.520100
     21 H201         3.0890     0.1530     1.4620 hc         1 ABJ       0.052700
     22 H202         1.5290     0.7980     1.9900 hc         1 ABJ       0.052700
     23 H203         1.7790    -0.9510     1.9050 hc         1 ABJ       0.052700
     24 H14          1.8920    -0.8710    -0.5330 h1         1 ABJ       0.085700
     25 H191        -0.3610     0.9300     0.4210 hc         1 ABJ       0.052700
     26 H192        -0.3610    -0.1000    -1.0160 hc         1 ABJ       0.052700
     27 H193        -0.3610    -0.8300     0.5950 hc         1 ABJ       0.052700
     28 H6           2.0480     0.2720    -5.1550 h5         1 ABJ       0.063100
     29 H11N         3.9150     4.4040    -4.6230 hn         1 ABJ       0.450300
     30 H12N         2.9970     5.0560    -3.3060 hn         1 ABJ       0.450300
     31 H28          1.4420     4.8530     0.7310 ha         1 ABJ       0.150000
     32 H27          4.8710     4.4480    -1.8020 ha         1 ABJ       0.139000
     33 H30          5.6440     6.6900    -1.1080 ha         1 ABJ       0.134000
     34 H26          4.3280     8.0290     0.5010 ha         1 ABJ       0.142000
     35 H33          2.4030     7.1160     2.4700 ho         1 ABJ       0.420000
@<TRIPOS>BOND
     1     3     2 1
     2     2     1 1
     3     2     4 1
     4     4     5 1
     5     4     6 1
     6     5    13 2
     7     6     7 ar
     8     6    12 ar
     9     7     8 ar
    10     8     9 ar
    11     9    10 ar
    12    10    11 1
    13    10    12 ar
    14    12    13 1
    15    13    14 1
    16    14    15 ar
    17    14    16 ar
    18    15    19 ar
    19    16    17 ar
    20    17    18 ar
    21    18    19 ar
    22    19    20 1
    23     3    21 1
    24     3    22 1
    25     3    23 1
    26     2    24 1
    27     1    25 1
    28     1    26 1
    29     1    27 1
    30     8    28 1
    31    11    29 1
    32    11    30 1
    33    15    31 1
    34    16    32 1
    35    17    33 1
    36    18    34 1
    37    20    35 1
@<TRIPOS>SUBSTRUCTURE
     1 ABJ         1 TEMP              0 ****  ****    0 ROOT
