@<TRIPOS>MOLECULE
ABJ
   35    37     1     0     0
SMALL
bcc


@<TRIPOS>ATOM
      1 C19          0.0000     0.0000     0.0000 c3         1 ABJ      -0.007100
      2 C14          1.5290     0.0000     0.0000 c3         1 ABJ      -0.072000
      3 C20          2.0170     0.0000     1.4430 c3         1 ABJ      -0.007100
      4 N11          2.0110     1.2050    -0.7060 na         1 ABJ       0.582200
      5 N15          2.3020     2.2450    -0.1090 nc         1 ABJ      -0.655100
      6 C7           2.1500     1.3470    -2.0350 ca         1 ABJ       0.216800
      7 N3           1.9620     0.5310    -3.0940 nb         1 ABJ      -0.687000
      8 C6           2.2040     0.9470    -4.3220 ca         1 ABJ       0.699900
      9 N5           2.6450     2.1880    -4.5540 nb         1 ABJ      -0.773000
     10 C2           2.8530     3.0630    -3.5600 ca         1 ABJ       0.595200
     11 N1           3.2790     4.2730    -3.8620 nv         1 ABJ      -0.473500
     12 C4           2.6110     2.6530    -2.2460 ca         1 ABJ      -0.478500
     13 C13          2.6790     3.2070    -0.9600 cd         1 ABJ       0.387500
     14 C18          3.0980     4.4890    -0.5970 ca         1 ABJ      -0.063900
     15 C28          2.3630     5.2500     0.3230 ca         1 ABJ      -0.110000
     16 C27          4.2840     5.0200    -1.0940 ca         1 ABJ      -0.129000
     17 C30          4.7200     6.2930    -0.7040 ca         1 ABJ      -0.084000
     18 C26          3.9860     7.0460     0.2010 ca         1 ABJ      -0.140000
     19 C29          2.8040     6.5230     0.7170 ca         1 ABJ       0.122100
     20 O33          2.0870     7.2700     1.5950 oh         1 ABJ      -0.500100
     21 H201         3.0890     0.1530     1.4620 hc         1 ABJ       0.018700
     22 H202         1.5290     0.7980     1.9900 hc         1 ABJ       0.018700
     23 H203         1.7790    -0.9510     1.9050 hc         1 ABJ       0.018700
     24 H14          1.8920    -0.8710    -0.5330 h1         1 ABJ       0.057700
     25 H191        -0.3610     0.9300     0.4210 hc         1 ABJ       0.018700
     26 H192        -0.3610    -0.1000    -1.0160 hc         1 ABJ       0.018700
     27 H193        -0.3610    -0.8300     0.5950 hc         1 ABJ       0.018700
     28 H6           2.0480     0.2720    -5.1550 h5         1 ABJ      -0.002900
     29 H11N         3.9150     4.4040    -4.6230 hn         1 ABJ       0.278300
     30 H12N         2.9970     5.0560    -3.3060 hn         1 ABJ       0.278300
     31 H28          1.4420     4.8530     0.7310 ha         1 ABJ       0.122000
     32 H27          4.8710     4.4480    -1.8020 ha         1 ABJ       0.109000
     33 H30          5.6440     6.6900    -1.1080 ha         1 ABJ       0.102000
     34 H26          4.3280     8.0290     0.5010 ha         1 ABJ       0.115000
     35 H33          2.4030     7.1160     2.4700 ho         1 ABJ       0.404000
@<TRIPOS>BOND
     1     1     2 1   
     2     1    25 1   
     3     1    26 1   
     4     1    27 1   
     5     2     3 1   
     6     2     4 1   
     7     2    24 1   
     8     3    21 1   
     9     3    22 1   
    10     3    23 1   
    11     4     5 1   
    12     4     6 1   
    13     5    13 2   
    14     6     7 ar  
    15     6    12 ar  
    16     7     8 ar  
    17     8     9 ar  
    18     8    28 1   
    19     9    10 ar  
    20    10    11 1   
    21    10    12 ar  
    22    11    29 1   
    23    11    30 1   
    24    12    13 1   
    25    13    14 1   
    26    14    15 ar  
    27    14    16 ar  
    28    15    19 ar  
    29    15    31 1   
    30    16    17 ar  
    31    16    32 1   
    32    17    18 ar  
    33    17    33 1   
    34    18    19 ar  
    35    18    34 1   
    36    19    20 1   
    37    20    35 1   
@<TRIPOS>SUBSTRUCTURE
     1 ABJ         1 TEMP              0 ****  ****    0 ROOT
