@<TRIPOS>MOLECULE
molecule
   18    17     1     0     0
SMALL
bcc


@<TRIPOS>ATOM
      1 N            0.0000     0.0000     0.0000 nz         1 ABK      -0.817600
      2 CA           1.4690     0.0000     0.0000 c3         1 ABK       0.025500
      3 CB           1.9780     0.0000     1.4420 c3         1 ABK      -0.293400
      4 CG           1.4680     1.2490     2.1640 c3         1 ABK       0.418900
      5 FG1          1.9340     1.2480     3.4830 f          1 ABK      -0.219800
      6 FG2          1.9340     2.3910     1.5050 f          1 ABK      -0.219800
      7 O21          3.7220    -2.2890    -2.0700 o          1 ABK      -0.745300
      8 O22          3.9280    -0.1710    -1.4510 o          1 ABK      -0.745300
      9 C1           1.9710    -1.2280    -0.7110 c          1 ABK       0.452100
     10 HN1         -0.3340    -0.5980     0.7300 hn         1 ABK       0.446800
     11 HN2         -0.3340     0.9310     0.1530 hn         1 ABK       0.446800
     12 HA           1.8300     0.8850    -0.5100 hx         1 ABK       0.134700
     13 HB1          2.8620    -0.5360     1.7670 hc         1 ABK       0.159200
     14 HB2          2.3760     0.7340     0.7510 hc         1 ABK       0.159200
     15 HG           0.3850     1.2490     2.1630 h2         1 ABK       0.033700
     16 O12          1.3190    -2.2440    -0.6960 o          1 ABK      -0.489100
     17 C2           3.2730    -1.1910    -1.4340 c          1 ABK       0.805600
     18 HN3         -0.3340    -0.3330    -0.8830 hn         1 ABK       0.446800
@<TRIPOS>BOND
     1     1     2 1
     2     1    10 1
     3     1    11 1
     4     2     3 1
     5     2     9 1
     6     2    12 1
     7     3     4 1
     8     3    13 1
     9     3    14 1
    10     4     5 1
    11     4     6 1
    12     4    15 1
    13    16     9 2
    14    17     7 1
    15    17     8 1
    16    17     9 1
    17    18     1 1
@<TRIPOS>SUBSTRUCTURE
     1 ABK         1 TEMP              0 ****  ****    0 ROOT
