@<TRIPOS>MOLECULE
molecule
   38    40     1     0     0
SMALL
bcc


@<TRIPOS>ATOM
      1 P            0.0000     0.0000     0.0000 p5         1 ABM       1.131600
      2 CM           1.8230     0.0000     0.0000 c3         1 ABM      -0.277300
      3 O2P         -0.4920     0.0000     1.3950 o          1 ABM      -0.820000
      4 O3P         -0.5360    -1.3140    -0.7590 o          1 ABM      -0.820000
      5 O5'         -0.5360     1.3150    -0.7590 os         1 ABM      -0.542200
      6 C5'         -1.9630     1.2580    -0.7260 c3         1 ABM       0.157400
      7 C4'         -2.5390     2.4840    -1.4350 c3         1 ABM       0.123100
      8 O4'         -2.1300     2.4910    -2.8130 os         1 ABM      -0.388600
      9 C3'         -4.0790     2.4290    -1.4110 c3         1 ABM       0.087100
     10 O3'         -4.6180     3.5630    -0.7290 oh         1 ABM      -0.581800
     11 C2'         -4.4800     2.4540    -2.9090 c3         1 ABM       0.088100
     12 O2'         -5.6170     3.2930    -3.1160 oh         1 ABM      -0.568800
     13 C1'         -3.2170     3.0610    -3.5710 c3         1 ABM       0.250800
     14 N9          -3.1280     2.6640    -4.9780 na         1 ABM      -0.244000
     15 C8          -2.5730     1.5150    -5.4570 cc         1 ABM       0.452700
     16 N7          -2.6630     1.4850    -6.7560 nd         1 ABM      -0.605100
     17 C5          -3.2820     2.6090    -7.1900 ca         1 ABM      -0.193200
     18 C6          -3.6460     3.1130    -8.4510 ca         1 ABM       0.772200
     19 N6          -3.3720     2.3980    -9.6040 nv         1 ABM      -1.014500
     20 N1          -4.2610     4.2890    -8.5090 nb         1 ABM      -0.827000
     21 C2          -4.5250     4.9780    -7.4140 ca         1 ABM       0.712900
     22 N3          -4.2020     4.5460    -6.2130 nb         1 ABM      -0.765000
     23 C4          -3.5920     3.3770    -6.0550 ca         1 ABM       0.465800
     24 HM1          2.1840     0.9020     0.4790 hc         1 ABM       0.043033
     25 HM2          2.1840    -0.0360    -1.0210 hc         1 ABM       0.043033
     26 HM3          2.1840    -0.8660     0.5420 hc         1 ABM       0.043033
     27 H5'1        -2.3000     0.3590    -1.2290 h1         1 ABM       0.063200
     28 H5'2        -2.3000     1.2440     0.3030 h1         1 ABM       0.063200
     29 H4'         -2.1980     3.3900    -0.9480 h1         1 ABM       0.078700
     30 H3'         -4.4150     1.5090    -0.9480 h1         1 ABM       0.057700
     31 HO3'        -5.1060     3.2750     0.0240 ho         1 ABM       0.402000
     32 H2'         -4.6590     1.4510    -3.2740 h1         1 ABM       0.059700
     33 HO2'        -6.3850     2.7580    -3.2290 ho         1 ABM       0.398000
     34 H1'         -3.2200     4.1400    -3.4740 h2         1 ABM       0.107700
     35 H8          -2.1220     0.7410    -4.8480 h5         1 ABM       0.106800
     36 HN61        -2.5290     1.8640    -9.6730 hn         1 ABM       0.442800
     37 HN62        -4.0250     2.4040   -10.3620 hn         1 ABM       0.442800
     38 H2          -5.0280     5.9330    -7.5070 h5         1 ABM       0.054100
@<TRIPOS>BOND
     1     1     2 1
     2     1     3 1
     3     1     4 1
     4     1     5 1
     5     2    24 1
     6     2    25 1
     7     2    26 1
     8     5     6 1
     9     6     7 1
    10     6    27 1
    11     6    28 1
    12     7     8 1
    13     7     9 1
    14     7    29 1
    15     8    13 1
    16     9    10 1
    17     9    11 1
    18     9    30 1
    19    10    31 1
    20    11    12 1
    21    11    13 1
    22    11    32 1
    23    12    33 1
    24    13    14 1
    25    13    34 1
    26    14    15 1
    27    14    23 1
    28    15    16 2
    29    15    35 1
    30    16    17 1
    31    17    18 ar
    32    17    23 ar
    33    18    19 1
    34    18    20 ar
    35    19    36 1
    36    19    37 1
    37    20    21 ar
    38    21    22 ar
    39    21    38 1
    40    22    23 ar
@<TRIPOS>SUBSTRUCTURE
     1 ABM         1 TEMP              0 ****  ****    0 ROOT
