@<TRIPOS>MOLECULE
molecule
   18    18     1     0     0
SMALL
bcc


@<TRIPOS>ATOM
      1 N            0.0000     0.0000     0.0000 nz         1 ABN      -0.810600
      2 C            1.4680     0.0000     0.0000 c3         1 ABN       0.159100
      3 C1           1.9710     0.0000     1.4200 ca         1 ABN      -0.199300
      4 C2           2.2010    -1.1960     2.0720 ca         1 ABN      -0.100500
      5 C3           2.6630    -1.1960     3.3740 ca         1 ABN      -0.111000
      6 C4           2.8930     0.0010     4.0260 ca         1 ABN      -0.072000
      7 C5           2.6640     1.1970     3.3740 ca         1 ABN      -0.111000
      8 C6           2.2060     1.1970     2.0690 ca         1 ABN      -0.100500
      9 HN1         -0.3340     0.8160     0.4740 hn         1 ABN       0.454467
     10 HN2         -0.3340    -0.8180     0.4700 hn         1 ABN       0.454467
     11 H1           1.8290     0.8840    -0.5110 hx         1 ABN       0.112200
     12 H2A          1.8290    -0.8840    -0.5110 hx         1 ABN       0.112200
     13 H2           2.0200    -2.1350     1.5610 ha         1 ABN       0.136000
     14 H3           2.8430    -2.1340     3.8850 ha         1 ABN       0.161000
     15 H4           3.2540     0.0010     5.0470 ha         1 ABN       0.162000
     16 H5           2.8470     2.1360     3.8830 ha         1 ABN       0.161000
     17 H6           2.0270     2.1350     1.5580 ha         1 ABN       0.136000
     18 HN3         -0.3340    -0.0460    -0.9420 hn         1 ABN       0.454467
@<TRIPOS>BOND
     1     1     2 1
     2     1     9 1
     3     1    10 1
     4     2     3 1
     5     2    11 1
     6     2    12 1
     7     3     4 ar
     8     3     8 ar
     9     4     5 ar
    10     4    13 1
    11     5     6 ar
    12     5    14 1
    13     6     7 ar
    14     6    15 1
    15     7     8 ar
    16     7    16 1
    17     8    17 1
    18    18     1 1
@<TRIPOS>SUBSTRUCTURE
     1 ABN         1 TEMP              0 ****  ****    0 ROOT
