@<TRIPOS>MOLECULE
ABO
   43    47     1     0     0
SMALL
bcc


@<TRIPOS>ATOM
      1 C18         0.2900    0.1850   -0.3810 c3        1 ABO      0.120700
      2 O17         1.6590    0.1410    0.0040 os        1 ABO     -0.348900
      3 C12         1.9070    0.1010    1.3660 ca        1 ABO      0.042100
      4 C11         0.9280    0.0700    2.3570 ca        1 ABO     -0.147000
      5 C13         3.2790    0.0910    1.7160 ca        1 ABO      0.118100
      6 O16         4.2880    0.1180    0.7860 oh        1 ABO     -0.493100
      7 C14         3.6480    0.0510    3.0660 ca        1 ABO     -0.140000
      8 C15         2.6640    0.0250    4.0500 ca        1 ABO     -0.112000
      9 C10         1.3060    0.0330    3.7080 cp        1 ABO     -0.051000
     10 C8          0.2800    0.0060    4.7510 cp        1 ABO      0.005000
     11 C9          0.4330    0.7940    5.8910 ca        1 ABO     -0.137000
     12 C7         -0.8570   -0.8230    4.5880 ca        1 ABO     -0.154000
     13 C6         -1.8620   -0.8890    5.5400 ca        1 ABO     -0.047000
     14 C5         -1.7410   -0.1060    6.6880 ca        1 ABO     -0.172900
     15 C4         -0.5800    0.7380    6.8550 ca        1 ABO     -0.056200
     16 N3         -0.7340    1.3680    8.1030 na        1 ABO     -0.007100
     17 N1         -1.8800    1.0340    8.6930 nc        1 ABO     -0.512100
     18 C2         -2.5230    0.1330    7.8960 cd        1 ABO      0.317600
     19 C19        -3.7970   -0.4840    8.2270 cd        1 ABO      0.415500
     20 N21        -4.4580   -0.2200    9.4500 na        1 ABO     -0.265300
     21 C22        -5.6350   -0.9680    9.4330 ca        1 ABO     -0.070200
     22 C27        -6.6810   -1.1150   10.3530 ca        1 ABO     -0.134000
     23 C26        -7.7210   -1.9620   10.0040 ca        1 ABO     -0.112000
     24 C25        -7.7370   -2.6520    8.7770 ca        1 ABO     -0.154000
     25 C24        -6.7140   -2.5230    7.8520 ca        1 ABO     -0.070000
     26 C23        -5.6390   -1.6760    8.1620 ca        1 ABO      0.065400
     27 N20        -4.4790   -1.3490    7.4380 nc        1 ABO     -0.561100
     28 H181       -0.2050    1.0980    0.0310 h1        1 ABO      0.047033
     29 H182        0.3360    0.2290   -1.4980 h1        1 ABO      0.047033
     30 H183       -0.2420   -0.7370   -0.0430 h1        1 ABO      0.047033
     31 H11        -0.1400    0.0820    2.0930 ha        1 ABO      0.145000
     32 H16         3.8850    0.1410   -0.0960 ho        1 ABO      0.438000
     33 H14         4.7160    0.0390    3.3290 ha        1 ABO      0.154000
     34 H15         2.9600   -0.0130    5.1090 ha        1 ABO      0.139000
     35 H9          1.3120    1.4400    6.0210 ha        1 ABO      0.144000
     36 H7         -0.9310   -1.4400    3.6790 ha        1 ABO      0.139000
     37 H6         -2.7350   -1.5440    5.4000 ha        1 ABO      0.168000
     38 H3         -0.1810    2.1060    8.4700 hn        1 ABO      0.327700
     39 H21        -4.1440    0.3750   10.1700 hn        1 ABO      0.316700
     40 H27        -6.6760   -0.5800   11.3120 ha        1 ABO      0.136000
     41 H26        -8.5600   -2.1010   10.7030 ha        1 ABO      0.132000
     42 H25        -8.5890   -3.3120    8.5530 ha        1 ABO      0.133000
     43 H24        -6.7340   -3.0660    6.8960 ha        1 ABO      0.146000
@<TRIPOS>BOND
     1    1    2 1   
     2    1   28 1   
     3    1   29 1   
     4    1   30 1   
     5    2    3 1   
     6    3    4 ar  
     7    3    5 ar  
     8    4    9 ar  
     9    4   31 1   
    10    5    6 1   
    11    5    7 ar  
    12    6   32 1   
    13    7    8 ar  
    14    7   33 1   
    15    8    9 ar  
    16    8   34 1   
    17    9   10 1   
    18   10   11 ar  
    19   10   12 ar  
    20   11   15 ar  
    21   11   35 1   
    22   12   13 ar  
    23   12   36 1   
    24   13   14 ar  
    25   13   37 1   
    26   14   15 ar  
    27   14   18 1   
    28   15   16 1   
    29   16   17 1   
    30   16   38 1   
    31   17   18 2   
    32   18   19 1   
    33   19   20 1   
    34   19   27 2   
    35   20   21 1   
    36   20   39 1   
    37   21   22 ar  
    38   21   26 ar  
    39   22   23 ar  
    40   22   40 1   
    41   23   24 ar  
    42   23   41 1   
    43   24   25 ar  
    44   24   42 1   
    45   25   26 ar  
    46   25   43 1   
    47   26   27 1   
@<TRIPOS>SUBSTRUCTURE
     1 ABO         1 TEMP              0 ****  ****    0 ROOT
