@<TRIPOS>MOLECULE
molecule
   43    47     1     0     0
SMALL
bcc


@<TRIPOS>ATOM
      1 C18          0.0000     0.0000     0.0000 c3         1 ABO       0.100700
      2 O17          1.4300     0.0000     0.0000 os         1 ABO      -0.280900
      3 C12          1.8220     0.0000     1.3020 ca         1 ABO       0.103100
      4 C11          0.8760     0.0010     2.3110 ca         1 ABO      -0.198000
      5 C13          3.1780    -0.0060     1.6210 ca         1 ABO       0.084100
      6 O16          4.1080    -0.0050     0.6300 oh         1 ABO      -0.504100
      7 C14          3.5800     0.0000     2.9480 ca         1 ABO      -0.136000
      8 C15          2.6400     0.0000     3.9570 ca         1 ABO      -0.135000
      9 C10          1.2810     0.0010     3.6440 cp         1 ABO      -0.017000
     10 C8           0.2690     0.0010     4.7280 cp         1 ABO       0.011000
     11 C9           0.4760     0.7710     5.8650 ca         1 ABO      -0.155000
     12 C7          -0.8870    -0.7780     4.6020 ca         1 ABO      -0.164000
     13 C6          -1.8260    -0.7870     5.5910 ca         1 ABO      -0.038000
     14 C5          -1.6370    -0.0140     6.7400 ca         1 ABO      -0.215900
     15 C4          -0.4790     0.7740     6.8760 ca         1 ABO      -0.019200
     16 N3          -0.5690     1.4120     8.0880 na         1 ABO      -0.045100
     17 N1          -1.7620     1.0410     8.7180 nc         1 ABO      -0.505100
     18 C2          -2.4270     0.2000     7.9590 cd         1 ABO       0.364600
     19 C19         -3.7300    -0.4180     8.2740 cd         1 ABO       0.422500
     20 N21         -4.4470    -0.2020     9.4210 na         1 ABO      -0.249300
     21 C22         -5.5990    -0.9590     9.3300 ca         1 ABO      -0.086200
     22 C27         -6.6920    -1.1510    10.1640 ca         1 ABO      -0.129000
     23 C26         -7.7120    -1.9950     9.7760 ca         1 ABO      -0.110000
     24 C25         -7.6530    -2.6550     8.5570 ca         1 ABO      -0.146000
     25 C24         -6.5780    -2.4780     7.7170 ca         1 ABO      -0.069000
     26 C23         -5.5350    -1.6250     8.0930 ca         1 ABO       0.091400
     27 N20         -4.3770    -1.2510     7.4960 nc         1 ABO      -0.590100
     28 H181        -0.3610    -0.8890     0.5030 h1         1 ABO       0.045367
     29 H182        -0.3610     0.0090    -1.0210 h1         1 ABO       0.045367
     30 H183        -0.3610     0.8800     0.5180 h1         1 ABO       0.045367
     31 H11         -0.1790     0.0010     2.0640 ha         1 ABO       0.153000
     32 H16          4.5300    -0.8480     0.5930 ho         1 ABO       0.417000
     33 H14          4.6360    -0.0020     3.1930 ha         1 ABO       0.143000
     34 H15          2.9570     0.0030     4.9930 ha         1 ABO       0.138000
     35 H9           1.3180     1.4510     5.9120 ha         1 ABO       0.138000
     36 H7          -1.0340    -1.3840     3.7160 ha         1 ABO       0.138000
     37 H6          -2.7170    -1.3930     5.4850 ha         1 ABO       0.162000
     38 H3           0.1120     2.0420     8.4630 hn         1 ABO       0.336700
     39 H21         -4.1220     0.2790    10.2360 hn         1 ABO       0.314700
     40 H27         -6.7450    -0.6390    11.1170 ha         1 ABO       0.129000
     41 H26         -8.5640    -2.1440    10.4280 ha         1 ABO       0.134000
     42 H25         -8.4600    -3.3160     8.2640 ha         1 ABO       0.134000
     43 H24         -6.5400    -2.9970     6.7670 ha         1 ABO       0.142000
@<TRIPOS>BOND
     1     1     2 1
     2     1    28 1
     3     1    29 1
     4     1    30 1
     5     2     3 1
     6     3     4 ar
     7     3     5 ar
     8     4     9 ar
     9     4    31 1
    10     5     6 1
    11     5     7 ar
    12     6    32 1
    13     7     8 ar
    14     7    33 1
    15     8     9 ar
    16     8    34 1
    17     9    10 1
    18    10    11 ar
    19    10    12 ar
    20    11    15 ar
    21    11    35 1
    22    12    13 ar
    23    12    36 1
    24    13    14 ar
    25    13    37 1
    26    14    15 ar
    27    14    18 1
    28    15    16 1
    29    16    17 1
    30    16    38 1
    31    17    18 2
    32    18    19 1
    33    19    20 1
    34    19    27 2
    35    20    21 1
    36    20    39 1
    37    21    22 ar
    38    21    26 ar
    39    22    23 ar
    40    22    40 1
    41    23    24 ar
    42    23    41 1
    43    24    25 ar
    44    24    42 1
    45    25    26 ar
    46    25    43 1
    47    26    27 1
@<TRIPOS>SUBSTRUCTURE
     1 ABO         1 TEMP              0 ****  ****    0 ROOT
