@<TRIPOS>MOLECULE
ABQ
   58    56     1     0     0
SMALL
bcc


@<TRIPOS>ATOM
      1 C1         -1.9950   -2.1490    0.7990 ca        1 ABQ     -0.175000
      2 C2         -0.1460   -1.1880    1.7000 ca        1 ABQ     -0.175000
      3 C3         -1.5460   -3.3140    1.5640 ca        1 ABQ     -0.144500
      4 C4         -0.3890   -1.7820    2.9180 ca        1 ABQ     -0.144500
      5 C5          2.8820    4.7890   -0.7480 c1        1 ABQ      0.154000
      6 C6          1.1520    3.0370   -0.0920 c2        1 ABQ      0.000000
      7 C7          2.8580    6.4560    4.1620 c3        1 ABQ     -0.110000
      8 C8         -0.2430   10.0310    4.6390 c1        1 ABQ      0.207000
      9 C9          0.5800    6.5210    4.6620 c2        1 ABQ     -0.126000
     10 C10         1.6050    5.6460    4.4770 c2        1 ABQ     -0.127000
     11 C11        -1.3790   -0.9220    0.9310 ca        1 ABQ      0.011000
     12 C12        -0.6760   -3.2020    2.6340 ca        1 ABQ      0.075000
     13 C13         0.9100    3.4530    3.4760 c2        1 ABQ     -0.080000
     14 C14         1.1620    7.9010    4.4610 c2        1 ABQ      0.132000
     15 C15         0.7370    2.7730    1.1980 c2        1 ABQ      0.026000
     16 C16        -0.8340    6.2810    5.0300 c2        1 ABQ      0.117000
     17 C18        -6.5010    3.0210    0.2870 c1        1 ABQ      0.213000
     18 C19        -1.8700    2.6730   -0.2640 c3        1 ABQ     -0.199000
     19 C20        -1.8090    0.2940    0.3250 c2        1 ABQ     -0.221000
     20 C21        -1.2740    1.5370    0.5130 c2        1 ABQ      0.051000
     21 C22         4.9600    5.1380    7.0550 cx        1 ABQ     -0.172000
     22 C23         6.3880    5.0080    6.6510 cu        1 ABQ     -0.200500
     23 N25         2.0700    3.9770   -0.4520 n2        1 ABQ     -0.293000
     24 N26         0.3900    9.0310    4.5670 n2        1 ABQ     -0.306000
     25 N27        -1.4330    6.8360    6.0390 n2        1 ABQ     -0.270000
     26 N28         1.3610    3.4610    2.2720 n2        1 ABQ     -0.130000
     27 N29         2.4580    7.8600    4.1740 n2        1 ABQ     -0.129000
     28 N30        -1.4760    5.3140    4.2170 n3        1 ABQ     -0.327000
     29 N31        -0.2820    1.8100    1.4610 n3        1 ABQ     -0.270000
     30 O33        -5.3430    3.0610    0.1070 o         1 ABQ     -0.218000
     31 F34        -0.3100   -4.2190    3.4260 f         1 ABQ     -0.088000
     32 H1         -2.8660   -2.2880    0.1450 ha        1 ABQ      0.135000
     33 H2          0.6520   -1.6180    1.0600 ha        1 ABQ      0.135000
     34 H3         -1.9880   -4.2870    1.3060 ha        1 ABQ      0.152500
     35 H4         -0.8120   -1.3200    3.8130 ha        1 ABQ      0.152500
     36 H5         -0.0040    2.9430    3.8520 h4        1 ABQ      0.162000
     37 H6          0.7110    2.4810   -0.9450 h4        1 ABQ      0.163000
     38 H7          3.2730    6.1940    3.1510 h1        1 ABQ      0.168000
     39 H8         -0.8570    7.4140    6.6100 hn        1 ABQ      0.162000
     40 H18        -2.6750    0.2090   -0.3540 ha        1 ABQ      0.142000
     41 H18A       -6.2790    3.3250    2.7370 ha        1 ABQ      0.001250
     42 H19        -1.4260    3.6630    0.0040 hc        1 ABQ      0.099667
     43 H19A       -2.9720    2.7180   -0.0640 hc        1 ABQ      0.099667
     44 H20        -6.9500    3.2340    2.7420 ha        1 ABQ      0.001250
     45 H21        -1.7160    2.5000   -1.3580 hc        1 ABQ      0.099667
     46 H22         3.6530    6.2800    4.9440 h1        1 ABQ      0.168000
     47 H22A        4.1740    4.5540    6.5380 hc        1 ABQ      0.098500
     48 H22B        4.7000    5.3140    8.1160 hc        1 ABQ      0.098500
     49 H23         5.7880    7.1000    5.8580 ha        1 ABQ      0.188500
     50 H23A        6.6930    4.4830    9.1440 ha        1 ABQ      0.001250
     51 H23B        6.8880    4.3600    9.7810 ha        1 ABQ      0.001250
     52 H24         7.2450    4.3680    6.6810 ha        1 ABQ      0.188500
     53 HN30       -1.2770    5.4400    3.2470 hn        1 ABQ      0.192500
     54 HN3A       -2.4550    5.2120    4.3930 hn        1 ABQ      0.192500
     55 HN31        0.0530    1.0070    1.9670 hn        1 ABQ      0.234000
     56 C17         1.6460    4.1860    4.5610 c2        1 ABQ      0.321000
     57 C24         5.7850    6.1300    6.3080 cu        1 ABQ     -0.200500
     58 O32         2.2270    3.5760    5.4580 o         1 ABQ     -0.238000
@<TRIPOS>BOND
     1    1    3 1
     2    1   11 1
     3    1   32 1
     4    2    4 1
     5    2   11 1
     6    2   33 1
     7    3   12 1
     8    3   34 1
     9    4   12 1
    10    4   35 1
    11    5   23 1
    12    6   15 1
    13    6   23 1
    14    6   37 1
    15    7   10 1
    16    7   27 1
    17    7   38 1
    18    7   46 1
    19    8   24 1
    20    9   10 1
    21    9   14 1
    22    9   16 1
    23   10   56 1
    24   11   19 1
    25   12   31 1
    26   13   26 1
    27   13   36 1
    28   13   56 1
    29   14   24 1
    30   14   27 1
    31   15   26 1
    32   15   29 1
    33   16   25 1
    34   16   28 1
    35   17   30 1
    36   18   20 1
    37   18   42 1
    38   18   43 1
    39   18   45 1
    40   19   20 1
    41   19   40 1
    42   20   29 1
    43   21   22 1
    44   21   47 1
    45   21   48 1
    46   21   57 1
    47   22   52 1
    48   22   57 1
    49   25   39 1
    50   28   53 1
    51   28   54 1
    52   29   55 1
    53   41   44 1
    54   49   57 1
    55   50   51 1
    56   56   58 1
@<TRIPOS>SUBSTRUCTURE
     1 ABQ         1 TEMP              0 ****  ****    0 ROOT
