@<TRIPOS>MOLECULE
ABU
   15    14     1     0     0
SMALL
bcc


@<TRIPOS>ATOM
      1 N           0.0820   -0.0790   -0.3400 n3        1 ABU     -0.908800
      2 CA          1.4880   -0.2980   -0.0790 c3        1 ABU      0.134800
      3 CB          2.0090    0.1900    1.2710 c3        1 ABU     -0.101400
      4 CG          3.4780   -0.1050    1.4370 c3        1 ABU     -0.192400
      5 CD          3.9510    0.2040    2.8690 c         1 ABU      0.908600
      6 OE1         3.2100   -0.1360    3.8360 o         1 ABU     -0.852300
      7 OE2         5.0730    0.7710    3.0070 o         1 ABU     -0.852300
      8 H          -0.1260    0.9010   -0.2750 hn        1 ABU      0.329300
      9 HN2        -0.4690   -0.5490    0.3530 hn        1 ABU      0.329300
     10 HA1         2.0700    0.2090   -0.9000 h1        1 ABU      0.037700
     11 HA2         1.6820   -1.4050   -0.1650 h1        1 ABU      0.037700
     12 HB1         1.8380    1.2940    1.3670 hc        1 ABU      0.044200
     13 HB2         1.4500   -0.3060    2.1100 hc        1 ABU      0.044200
     14 HG1         4.0820    0.4940    0.7100 hc        1 ABU      0.020700
     15 HG2         3.6780   -1.1880    1.2380 hc        1 ABU      0.020700
@<TRIPOS>BOND
     1    1    2 1
     2    1    8 1
     3    1    9 1
     4    2    3 1
     5    2   10 1
     6    2   11 1
     7    3    4 1
     8    3   12 1
     9    3   13 1
    10    4    5 1
    11    4   14 1
    12    4   15 1
    13    5    6 1
    14    5    7 1
@<TRIPOS>SUBSTRUCTURE
     1 ABU         1 TEMP              0 ****  ****    0 ROOT
