@<TRIPOS>MOLECULE
ABV
   16    17     1     0     0
SMALL
bcc


@<TRIPOS>ATOM
      1 C1           0.0000     0.0000     0.0000 ca         1 ABV      -0.053000
      2 N1          -0.8390    -0.0000     3.4880 nc         1 ABV      -0.451100
      3 S1          -2.4300     0.0000     1.5390 ss         1 ABV      -0.281100
      4 C2           1.3770     0.0000     0.0000 ca         1 ABV      -0.089000
      5 C3           2.0700     0.0000     1.2010 ca         1 ABV      -0.104000
      6 C4           1.3960     0.0000     2.3970 ca         1 ABV      -0.042000
      7 C5          -0.0150     0.0000     2.4220 ca         1 ABV       0.067400
      8 C6          -0.7010     0.0000     1.2030 ca         1 ABV       0.000900
      9 C7          -2.1090    -0.0000     3.2670 cd         1 ABV       0.483100
     10 H1          -0.5400    -0.0000    -0.9390 ha         1 ABV       0.112000
     11 H2           1.9180     0.0000    -0.9380 ha         1 ABV       0.107000
     12 HN2         -3.4370     0.8670     4.6000 hn         1 ABV       0.277800
     13 HN2A        -3.4370    -0.8670     4.6000 hn         1 ABV       0.277800
     14 H3           3.1530     0.0000     1.1950 ha         1 ABV       0.107000
     15 H4           1.9510     0.0000     3.3270 ha         1 ABV       0.113000
     16 N2          -3.0790    -0.0000     4.2490 nv         1 ABV      -0.525800
@<TRIPOS>BOND
     1     1     4 ar  
     2     1     8 ar  
     3     1    10 1   
     4     2     7 1   
     5     2     9 2   
     6     3     8 1   
     7     3     9 1   
     8     4     5 ar  
     9     4    11 1   
    10     5     6 ar  
    11     5    14 1   
    12     6     7 ar  
    13     6    15 1   
    14     7     8 ar  
    15     9    16 1   
    16    12    16 1   
    17    13    16 1   
@<TRIPOS>SUBSTRUCTURE
     1 ABV         1 TEMP              0 ****  ****    0 ROOT
