@<TRIPOS>MOLECULE
molecule
   43    43     1     0     0
SMALL
bcc


@<TRIPOS>ATOM
      1 C1           0.0000     0.0000     0.0000 c3         1 ABW      -0.161700
      2 C13          1.5430     0.0000     0.0000 c3         1 ABW       0.135100
      3 O6           1.9730     0.0000     1.3700 os         1 ABW      -0.380600
      4 C3           0.8340    -0.0470     2.2420 c3         1 ABW       0.027100
      5 C4          -0.3340     0.5470     1.4150 c3         1 ABW      -0.073400
      6 C5           1.0800     0.7870     3.4730 c          1 ABW       0.893600
      7 O1           0.1410     0.8670     4.4290 o          1 ABW      -0.827800
      8 O2           2.1220     1.3850     3.5990 o          1 ABW      -0.827800
      9 N2           1.4990    -1.3240    -2.0560 ns         1 ABW      -0.580900
     10 C6           1.3030    -2.5230    -2.6390 c          1 ABW       0.652100
     11 C7           0.8210    -2.5980    -4.0640 c3         1 ABW      -0.173100
     12 O4           1.5160    -3.5420    -2.0160 o          1 ABW      -0.622100
     13 C8           2.0720    -1.2480    -0.7100 c3         1 ABW       0.093700
     14 C2           3.5970    -1.1720    -0.8090 c3         1 ABW      -0.080400
     15 C9           4.2040    -1.2610     0.5920 c3         1 ABW      -0.085700
     16 C10          3.8560    -2.6160     1.2140 c3         1 ABW      -0.083100
     17 C15          5.7250    -1.1200     0.5000 c3         1 ABW      -0.083100
     18 C14         -0.5360     0.9170    -1.0700 c          1 ABW       0.656100
     19 O3           0.2250     1.4880    -1.8140 o          1 ABW      -0.580000
     20 O5          -1.8600     1.1000    -1.1950 os         1 ABW      -0.433900
     21 C16         -2.3770     1.9830    -2.2250 c3         1 ABW       0.145700
     22 H1          -0.3820    -1.0070    -0.1200 hc         1 ABW       0.085700
     23 H13          1.9080     0.8920    -0.4960 h1         1 ABW       0.077700
     24 H3           0.6150    -1.0720     2.5150 h1         1 ABW       0.039700
     25 H41         -0.3080     1.6300     1.4280 hc         1 ABW       0.067200
     26 H42         -1.2880     0.1670     1.7620 hc         1 ABW       0.067200
     27 HN2          1.3060    -0.4840    -2.5650 hn         1 ABW       0.321500
     28 H71          0.8190    -3.6310    -4.3910 hc         1 ABW       0.053700
     29 H72         -0.1840    -2.1980    -4.1270 hc         1 ABW       0.053700
     30 H73          1.4800    -2.0200    -4.7000 hc         1 ABW       0.053700
     31 H8           1.7910    -2.1300    -0.1480 h1         1 ABW       0.092700
     32 H21          3.8820    -0.2320    -1.2680 hc         1 ABW       0.036700
     33 H22          3.9610    -1.9930    -1.4140 hc         1 ABW       0.036700
     34 H9           3.8050    -0.4660     1.2110 hc         1 ABW       0.117700
     35 H101         4.0380    -3.4020     0.4910 hc         1 ABW       0.027367
     36 H102         2.8110    -2.6240     1.5000 hc         1 ABW       0.027367
     37 H103         4.4710    -2.7800     2.0900 hc         1 ABW       0.027367
     38 H151         6.1510    -1.1470     1.4960 hc         1 ABW       0.027367
     39 H152         5.9720    -0.1770     0.0270 hc         1 ABW       0.027367
     40 H153         6.1280    -1.9350    -0.0880 hc         1 ABW       0.027367
     41 H161        -1.9820     2.9810    -2.0760 h1         1 ABW       0.040700
     42 H162        -2.0760     1.6180    -3.1990 h1         1 ABW       0.040700
     43 H163        -3.4580     2.0110    -2.1680 h1         1 ABW       0.040700
@<TRIPOS>BOND
     1     1     2 1
     2     1     5 1
     3     1    18 1
     4     1    22 1
     5     2     3 1
     6     2    13 1
     7     2    23 1
     8     3     4 1
     9     4     5 1
    10     4     6 1
    11     4    24 1
    12     5    25 1
    13     5    26 1
    14     6     7 1
    15     6     8 1
    16     9    10 1
    17     9    13 1
    18     9    27 1
    19    10    11 1
    20    10    12 2
    21    11    28 1
    22    11    29 1
    23    11    30 1
    24    13    14 1
    25    13    31 1
    26    14    15 1
    27    14    32 1
    28    14    33 1
    29    15    16 1
    30    15    17 1
    31    15    34 1
    32    16    35 1
    33    16    36 1
    34    16    37 1
    35    17    38 1
    36    17    39 1
    37    17    40 1
    38    18    19 2
    39    18    20 1
    40    20    21 1
    41    21    41 1
    42    21    42 1
    43    21    43 1
@<TRIPOS>SUBSTRUCTURE
     1 ABW         1 TEMP              0 ****  ****    0 ROOT
