@<TRIPOS>MOLECULE
ABX
   44    44     1     0     0
SMALL
bcc


@<TRIPOS>ATOM
      1 C1           0.0000     0.0000     0.0000 c3         1 ABX      -0.128700
      2 C2           1.5430     0.0000     0.0000 c3         1 ABX       0.109500
      3 N1           1.9780     0.0000     1.4120 n7         1 ABX      -0.591200
      4 C3           0.7770    -0.0310     2.2740 c3         1 ABX       0.014500
      5 C4          -0.3540     0.5670     1.4000 c3         1 ABX      -0.012400
      6 C5           0.9890     0.8130     3.5050 c          1 ABX       0.976600
      7 O1           0.1680     0.6830     4.5580 o          1 ABX      -0.884300
      8 O2           1.9010     1.6060     3.5440 o          1 ABX      -0.884300
      9 N2           1.4670    -1.3520    -2.0370 ns         1 ABX      -0.196900
     10 C6           1.2780    -2.5610    -2.6000 c          1 ABX       0.564100
     11 C7           0.7600    -2.6640    -4.0110 c3         1 ABX      -0.070100
     12 O3           1.5270    -3.5680    -1.9700 o          1 ABX      -0.663100
     13 C8           2.0740    -1.2480    -0.7080 c3         1 ABX       0.006700
     14 C9           3.5940    -1.1460    -0.8480 c3         1 ABX      -0.029400
     15 C10          4.2400    -1.2070     0.5370 c3         1 ABX      -0.085700
     16 C11          3.9070    -2.5470     1.1970 c3         1 ABX       0.005400
     17 C12          5.7580    -1.0700     0.3990 c3         1 ABX       0.005400
     18 C13         -0.5330     0.8950    -1.0880 c          1 ABX       0.716100
     19 O4           0.2310     1.4560    -1.8370 o          1 ABX      -0.615000
     20 O5          -1.8570     1.0710    -1.2250 os         1 ABX      -0.416900
     21 C14         -2.3710     1.9340    -2.2730 c3         1 ABX       0.273700
     22 H1          -0.3790    -1.0090    -0.1070 hc         1 ABX       0.057700
     23 H2           1.9090     0.8920    -0.4940 h1         1 ABX       0.045700
     24 HN1          2.5020     0.8320     1.6000 hn         1 ABX       0.300800
     25 H3           0.5380    -1.0520     2.5480 h1         1 ABX       0.040700
     26 H41         -1.3230     0.2100     1.7260 hc         1 ABX       0.029200
     27 H42         -0.3100     1.6490     1.4000 hc         1 ABX       0.029200
     28 HN2          1.2340    -0.5220    -2.5460 hn         1 ABX       0.187500
     29 H71          1.2140    -1.8910    -4.6200 hc         1 ABX       0.015700
     30 H72         -0.3160    -2.5370    -4.0110 hc         1 ABX       0.015700
     31 H73          1.0090    -3.6370    -4.4180 hc         1 ABX       0.015700
     32 H8           1.8230    -2.1270    -0.1270 h1         1 ABX       0.081700
     33 H91          3.8500    -0.2080    -1.3250 hc         1 ABX       0.010700
     34 H92          3.9570    -1.9690    -1.4520 hc         1 ABX       0.010700
     35 H10          3.8590    -0.3990     1.1490 hc         1 ABX       0.087700
     36 H111         2.8760    -2.5400     1.5290 hc         1 ABX      -0.000800
     37 H112         4.5590    -2.7020     2.0490 hc         1 ABX      -0.000800
     38 H113         4.0500    -3.3480     0.4820 hc         1 ABX      -0.000800
     39 H121         6.2110    -1.0680     1.3830 hc         1 ABX      -0.000800
     40 H122         6.1450    -1.9030    -0.1750 hc         1 ABX      -0.000800
     41 H123         5.9920    -0.1420    -0.1070 hc         1 ABX      -0.000800
     42 H141        -2.0780     1.5420    -3.2400 h1         1 ABX      -0.006300
     43 H142        -1.9670     2.9320    -2.1500 h1         1 ABX      -0.006300
     44 H143        -3.4520     1.9720    -2.2120 h1         1 ABX      -0.006300
@<TRIPOS>BOND
     1     1     2 1   
     2     1     5 1   
     3     1    18 1   
     4     1    22 1   
     5     2     3 1   
     6     2    13 1   
     7     2    23 1   
     8     3     4 1   
     9     3    24 1   
    10     4     5 1   
    11     4     6 1   
    12     4    25 1   
    13     5    26 1   
    14     5    27 1   
    15     6     7 1   
    16     6     8 1   
    17     9    10 1   
    18     9    13 1   
    19     9    28 1   
    20    10    11 1   
    21    10    12 2   
    22    11    29 1   
    23    11    30 1   
    24    11    31 1   
    25    13    14 1   
    26    13    32 1   
    27    14    15 1   
    28    14    33 1   
    29    14    34 1   
    30    15    16 1   
    31    15    17 1   
    32    15    35 1   
    33    16    36 1   
    34    16    37 1   
    35    16    38 1   
    36    17    39 1   
    37    17    40 1   
    38    17    41 1   
    39    18    19 2   
    40    18    20 1   
    41    20    21 1   
    42    21    42 1   
    43    21    43 1   
    44    21    44 1   
@<TRIPOS>SUBSTRUCTURE
     1 ABX         1 TEMP              0 ****  ****    0 ROOT
