@<TRIPOS>MOLECULE
ABY
   51    51     1     0     0
SMALL
bcc


@<TRIPOS>ATOM
      1 C7'          0.0000     0.0000     0.0000 c3         1 ABY       0.215700
      2 O4'          1.4280     0.0000     0.0000 os         1 ABY      -0.283900
      3 C4'          1.8210     0.0000     1.3010 ca         1 ABY       0.139100
      4 C5'          3.1710    -0.0000     1.6200 ca         1 ABY      -0.183000
      5 C6'          3.5670     0.0020     2.9420 ca         1 ABY      -0.040000
      6 C1'          2.6200     0.0020     3.9500 ca         1 ABY      -0.126300
      7 C2'          1.2740     0.0030     3.6340 ca         1 ABY      -0.040000
      8 C3'          0.8720     0.0080     2.3120 ca         1 ABY      -0.183000
      9 C'           3.0550     0.0030     5.3920 c3         1 ABY       0.160000
     10 SG2          3.2310     1.7120     5.9700 ss         1 ABY      -0.426200
     11 CB2          3.7470     1.4140     7.6820 c3         1 ABY       0.072700
     12 CA2          3.9610     2.7530     8.3900 c3         1 ABY      -0.043300
     13 N2           5.0000     3.5140     7.6930 ns         1 ABY      -0.154900
     14 CD1          4.9680     4.8610     7.7000 c          1 ABY       0.576100
     15 OE1          4.0780     5.4430     8.2830 o          1 ABY      -0.653100
     16 CG1          6.0360     5.6430     6.9820 c3         1 ABY      -0.093400
     17 CB1          5.7670     7.1410     7.1440 c3         1 ABY      -0.019400
     18 CA1          6.8520     7.9360     6.4140 c3         1 ABY      -0.060200
     19 N1           6.5940     9.3740     6.5700 nz         1 ABY       0.087400
     20 C2           4.3910     2.5060     9.8140 c          1 ABY       0.526100
     21 O2           3.5570     2.4070    10.6910 o          1 ABY      -0.655100
     22 N3           5.7000     2.3950    10.1140 ns         1 ABY      -0.142900
     23 CA3          6.1170     2.1540    11.4970 c3         1 ABY      -0.075000
     24 C3           7.6190     2.0710    11.5610 c          1 ABY       0.971600
     25 O31          8.2300     1.8540    12.7370 o          1 ABY      -0.888800
     26 O32          8.2750     2.2000    10.5550 o          1 ABY      -0.888800
     27 H7'1        -0.3610    -0.8830     0.5140 h1         1 ABY       0.003033
     28 H7'2        -0.3610     0.8860     0.5080 h1         1 ABY       0.003033
     29 H7'3        -0.3610    -0.0040    -1.0210 h1         1 ABY       0.003033
     30 H5'          3.9140    -0.0000     0.8310 ha         1 ABY       0.126000
     31 H6'          4.6210     0.0010     3.1910 ha         1 ABY       0.109000
     32 H2'          0.5330     0.0060     4.4240 ha         1 ABY       0.109000
     33 H3'         -0.1830     0.0090     2.0660 ha         1 ABY       0.126000
     34 H'1          4.0050    -0.5090     5.4830 h1         1 ABY       0.041200
     35 H'2          2.3120    -0.5070     5.9930 h1         1 ABY       0.041200
     36 HB21         2.9780     0.8520     8.1980 h1         1 ABY       0.055700
     37 HB22         4.6720     0.8500     7.6880 h1         1 ABY       0.055700
     38 HA2          3.0360     3.3170     8.3850 h1         1 ABY       0.090700
     39 HN2          5.7090     3.0330     7.1750 hn         1 ABY       0.186500
     40 HG11         7.0050     5.4030     7.4030 hc         1 ABY       0.041700
     41 HG12         6.0260     5.3860     5.9290 hc         1 ABY       0.041700
     42 HB11         5.7770     7.3980     8.1960 hc         1 ABY       0.049200
     43 HB12         4.7990     7.3810     6.7220 hc         1 ABY       0.049200
     44 HA11         6.8420     7.6800     5.3620 hx         1 ABY       0.083200
     45 HA12         7.8210     7.6960     6.8350 hx         1 ABY       0.083200
     46 HN11         6.6040     9.6110     7.5420 hn         1 ABY       0.220800
     47 HN12         7.3040     9.8940     6.0930 hn         1 ABY       0.220800
     48 HN3          6.3850     2.4470     9.3860 hn         1 ABY       0.184500
     49 HA31         5.6890     1.2220    11.8470 h1         1 ABY       0.031200
     50 HA32         5.7740     2.9670    12.1250 h1         1 ABY       0.031200
     51 H13          5.7000     9.5960     6.1800 hn         1 ABY       0.220800
@<TRIPOS>BOND
     1     1     2 1   
     2     1    27 1   
     3     1    28 1   
     4     1    29 1   
     5     2     3 1   
     6     3     4 ar  
     7     3     8 ar  
     8     4     5 ar  
     9     4    30 1   
    10     5     6 ar  
    11     5    31 1   
    12     6     7 ar  
    13     6     9 1   
    14     7     8 ar  
    15     7    32 1   
    16     8    33 1   
    17     9    10 1   
    18     9    34 1   
    19     9    35 1   
    20    10    11 1   
    21    11    12 1   
    22    11    36 1   
    23    11    37 1   
    24    12    13 1   
    25    12    20 1   
    26    12    38 1   
    27    13    14 1   
    28    13    39 1   
    29    14    15 2   
    30    14    16 1   
    31    16    17 1   
    32    16    40 1   
    33    16    41 1   
    34    17    18 1   
    35    17    42 1   
    36    17    43 1   
    37    18    19 1   
    38    18    44 1   
    39    18    45 1   
    40    19    46 1   
    41    19    47 1   
    42    19    51 1   
    43    20    21 2   
    44    20    22 1   
    45    22    23 1   
    46    22    48 1   
    47    23    24 1   
    48    23    49 1   
    49    23    50 1   
    50    24    25 1   
    51    24    26 1   
@<TRIPOS>SUBSTRUCTURE
     1 ABY         1 TEMP              0 ****  ****    0 ROOT
