@<TRIPOS>MOLECULE
ABZ
   41    44     1     0     0
SMALL
bcc


@<TRIPOS>ATOM
      1 C1           0.0000     0.0000     0.0000 ca         1 ABZ       0.051700
      2 C7          -0.7580     0.0070    -1.3030 c3         1 ABZ      -0.253400
      3 C2           1.3960     0.0000     0.0000 ca         1 ABZ      -0.110800
      4 N10          3.4410     0.0100     0.9130 na         1 ABZ       0.306600
      5 C3           2.0980     0.0000     1.2180 ca         1 ABZ      -0.223200
      6 C4           1.3910    -0.0120     2.4150 ca         1 ABZ      -0.120000
      7 C5           0.0140    -0.0200     2.3990 ca         1 ABZ      -0.100000
      8 C6          -0.6820    -0.0130     1.1960 ca         1 ABZ      -0.042600
      9 C25          2.4120     0.0210    -1.0530 cc         1 ABZ      -0.145200
     10 C8          -1.0180     1.4300    -1.7250 ca         1 ABZ       0.763300
     11 N1          -2.1210     2.0430    -1.3350 nb         1 ABZ      -0.796000
     12 C9          -2.3520     3.2990    -1.7060 ca         1 ABZ       0.764900
     13 N5          -3.5070     3.9390    -1.2970 nu         1 ABZ      -0.264300
     14 N2          -1.4720     3.9380    -2.4660 nb         1 ABZ      -0.801000
     15 C10         -0.3660     3.3170    -2.8620 ca         1 ABZ       0.736900
     16 N4           0.5500     3.9760    -3.6560 nv         1 ABZ      -0.521500
     17 N3          -0.1410     2.0610    -2.4860 nb         1 ABZ      -0.803000
     18 C11         -3.6960     5.2880    -1.5880 ca         1 ABZ       0.023600
     19 C12         -2.6050     6.1500    -1.6250 ca         1 ABZ      -0.134000
     20 C13         -2.7890     7.4840    -1.9130 ca         1 ABZ      -0.052500
     21 C14         -4.0740     7.9710    -2.1680 ca         1 ABZ       0.019000
     22 C15         -5.1670     7.1030    -2.1310 ca         1 ABZ      -0.052500
     23 C16         -4.9760     5.7700    -1.8480 ca         1 ABZ      -0.134000
     24 C17         -4.2690     9.3580    -2.4670 cg         1 ABZ       0.234800
     25 N6          -4.4310    10.4610    -2.6860 n1         1 ABZ      -0.386800
     26 C26          3.6090     0.0220    -0.4460 cd         1 ABZ      -0.218100
     27 Cl          -2.4170    -0.0220     1.2020 cl         1 ABZ      -0.015400
     28 H71         -0.3880    -0.5610    -2.1480 hc         1 ABZ       0.105200
     29 H72         -1.2200     0.9140    -1.6740 hc         1 ABZ       0.105200
     30 H10          4.0200     0.1670     1.7130 hn         1 ABZ       0.126700
     31 H4           1.7170    -0.2440     3.4220 ha         1 ABZ       0.110000
     32 H5          -0.4190     0.0610     3.3890 ha         1 ABZ       0.112000
     33 H25          2.0400     0.3330    -2.0220 ha         1 ABZ       0.146000
     34 HN5         -4.1940     3.2810    -0.9850 hn         1 ABZ       0.302800
     35 HN41         0.0840     4.7340    -4.1130 hn         1 ABZ       0.323300
     36 HN42         1.3560     3.3840    -3.6170 hn         1 ABZ       0.323300
     37 H12         -1.6190     5.7750    -1.3810 ha         1 ABZ       0.126500
     38 H13         -1.7960     7.8900    -1.7680 ha         1 ABZ       0.119500
     39 H15         -6.1010     7.5580    -2.4400 ha         1 ABZ       0.119500
     40 H16         -5.8090     5.1370    -1.5700 ha         1 ABZ       0.126500
     41 H26          4.5840     0.4270    -0.6890 h4         1 ABZ       0.126000
@<TRIPOS>BOND
     1     1     2 1   
     2     1     3 ar  
     3     1     8 ar  
     4     2    10 1   
     5     2    28 1   
     6     2    29 1   
     7     3     5 ar  
     8     3     9 1   
     9     4     5 1   
    10     4    26 1   
    11     4    30 1   
    12     5     6 ar  
    13     6     7 ar  
    14     6    31 1   
    15     7     8 ar  
    16     7    32 1   
    17     8    27 1   
    18     9    26 2   
    19     9    33 1   
    20    10    11 ar  
    21    10    17 ar  
    22    11    12 ar  
    23    12    13 1   
    24    12    14 ar  
    25    13    18 1   
    26    13    34 1   
    27    14    15 ar  
    28    15    16 1   
    29    15    17 ar  
    30    16    35 1   
    31    16    36 1   
    32    18    19 ar  
    33    18    23 ar  
    34    19    20 ar  
    35    19    37 1   
    36    20    21 ar  
    37    20    38 1   
    38    21    22 ar  
    39    21    24 1   
    40    22    23 ar  
    41    22    39 1   
    42    23    40 1   
    43    24    25 3   
    44    26    41 1   
@<TRIPOS>SUBSTRUCTURE
     1 ABZ         1 TEMP              0 ****  ****    0 ROOT
