@<TRIPOS>MOLECULE
molecule
   17    17     1     0     0
SMALL
bcc


@<TRIPOS>ATOM
      1 O1           0.0000     0.0000     0.0000 o          1 AC0      -0.529100
      2 C7           1.2130     0.0000     0.0000 c          1 AC0       0.575700
      3 C8           1.9670     0.0000     1.3040 c3         1 AC0      -0.191100
      4 C1           1.9490    -0.0060    -1.2750 ca         1 AC0      -0.180600
      5 C2           1.2520    -0.0110    -2.4880 ca         1 AC0      -0.079500
      6 C3           1.9490    -0.0160    -3.6780 ca         1 AC0      -0.143000
      7 C4           3.3330    -0.0170    -3.6740 ca         1 AC0      -0.100000
      8 C5           4.0290    -0.0110    -2.4780 ca         1 AC0      -0.143000
      9 C6           3.3470     0.0000    -1.2790 ca         1 AC0      -0.079500
     10 H81          2.5890     0.8850     1.3620 hc         1 AC0       0.061367
     11 H82          1.2630    -0.0010     2.1280 hc         1 AC0       0.061367
     12 H83          2.5900    -0.8840     1.3610 hc         1 AC0       0.061367
     13 H2           0.1690    -0.0100    -2.4930 ha         1 AC0       0.143000
     14 H3           1.4120    -0.0200    -4.6190 ha         1 AC0       0.134000
     15 H4           3.8740    -0.0240    -4.6130 ha         1 AC0       0.132000
     16 H5           5.1120    -0.0100    -2.4830 ha         1 AC0       0.134000
     17 H6           3.8930     0.0040    -0.3440 ha         1 AC0       0.143000
@<TRIPOS>BOND
     1     1     2 2
     2     2     3 1
     3     2     4 1
     4     3    10 1
     5     3    11 1
     6     3    12 1
     7     4     5 ar
     8     4     9 ar
     9     5     6 ar
    10     5    13 1
    11     6     7 ar
    12     6    14 1
    13     7     8 ar
    14     7    15 1
    15     8     9 ar
    16     8    16 1
    17     9    17 1
@<TRIPOS>SUBSTRUCTURE
     1 AC0         1 TEMP              0 ****  ****    0 ROOT
