@<TRIPOS>MOLECULE
AC0
   17    17     1     0     0
SMALL
bcc


@<TRIPOS>ATOM
      1 O1         -0.0570   -0.0030    0.0060 o         1 AC0     -0.537100
      2 C7          1.1820   -0.0030    0.0040 c         1 AC0      0.576700
      3 C8          1.9550    0.0020    1.2850 c3        1 AC0     -0.198100
      4 C1          1.9520   -0.0070   -1.2580 ca        1 AC0     -0.177600
      5 C2          1.2560   -0.0110   -2.4760 ca        1 AC0     -0.082000
      6 C3          1.9500   -0.0150   -3.6840 ca        1 AC0     -0.145500
      7 C4          3.3440   -0.0150   -3.6880 ca        1 AC0     -0.101000
      8 C5          4.0430   -0.0110   -2.4810 ca        1 AC0     -0.145500
      9 C6          3.3520   -0.0060   -1.2700 ca        1 AC0     -0.082000
     10 H81         2.6010    0.9120    1.3370 hc        1 AC0      0.064700
     11 H82         2.6020   -0.9070    1.3430 hc        1 AC0      0.064700
     12 H83         1.2580    0.0050    2.1580 hc        1 AC0      0.064700
     13 H2          0.1530   -0.0110   -2.4620 ha        1 AC0      0.145000
     14 H3          1.3950   -0.0190   -4.6340 ha        1 AC0      0.136500
     15 H4          3.8930   -0.0180   -4.6410 ha        1 AC0      0.135000
     16 H5          5.1430   -0.0100   -2.4820 ha        1 AC0      0.136500
     17 H6          3.9170   -0.0030   -0.3260 ha        1 AC0      0.145000
@<TRIPOS>BOND
     1    1    2 2   
     2    2    3 1   
     3    2    4 1   
     4    3   10 1   
     5    3   11 1   
     6    3   12 1   
     7    4    5 ar  
     8    4    9 ar  
     9    5    6 ar  
    10    5   13 1   
    11    6    7 ar  
    12    6   14 1   
    13    7    8 ar  
    14    7   15 1   
    15    8    9 ar  
    16    8   16 1   
    17    9   17 1   
@<TRIPOS>SUBSTRUCTURE
     1 AC0         1 TEMP              0 ****  ****    0 ROOT
