@<TRIPOS>MOLECULE
AC1
   45    46     1     0     0
SMALL
bcc


@<TRIPOS>ATOM
      1 C1           0.0000     0.0000     0.0000 c3         1 AC1       0.377900
      2 O2           2.0070    -1.1670    -0.6720 oh         1 AC1      -0.580800
      3 C2           1.5290     0.0000     0.0000 c3         1 AC1       0.121100
      4 C4           4.2110     3.5570     5.9470 c3         1 AC1       0.252300
      5 C3A          2.0290     0.0000     1.4490 c3         1 AC1       0.155100
      6 O3A          3.4510     0.1490     1.4660 oh         1 AC1      -0.593800
      7 C4A          1.3780     1.1730     2.1910 c3         1 AC1       0.064500
      8 N4A          1.7230     1.1050     3.6170 n7         1 AC1      -0.539200
      9 C5A         -0.1410     1.0840     2.0260 c3         1 AC1       0.171100
     10 O5          -0.4830     1.1770     0.6450 os         1 AC1      -0.401600
     11 C6A         -0.8030     2.2290     2.7930 c3         1 AC1       0.000900
     12 C1B          2.9040     1.9550     3.8060 c3         1 AC1       0.137700
     13 C2B          3.7980     1.3480     4.8900 c3         1 AC1       0.175100
     14 O2B          3.0200     1.0400     6.0480 oh         1 AC1      -0.539800
     15 C3B          4.8820     2.3690     5.2540 c3         1 AC1       0.147100
     16 O3B          5.5460     2.8150     4.0700 oh         1 AC1      -0.570800
     17 O4           3.7650     3.1560     7.2420 oh         1 AC1      -0.556800
     18 C5B          3.0380     4.0290     5.1410 c2         1 AC1      -0.181400
     19 C7B          2.4660     3.3310     4.2130 c2         1 AC1      -0.080200
     20 C6B          2.4900     5.4020     5.4300 c3         1 AC1       0.283600
     21 O6B          1.3830     5.6660     4.5660 oh         1 AC1      -0.592800
     22 O1          -0.4740    -1.1520     0.6990 oh         1 AC1      -0.596800
     23 H1          -0.3580    -0.0200    -1.0220 h2         1 AC1       0.010700
     24 HO2          2.2910    -0.9360    -1.5410 ho         1 AC1       0.391000
     25 HC2          1.8900     0.8880    -0.5050 h1         1 AC1       0.028700
     26 HC4          4.9270     4.3640     6.0430 h1         1 AC1      -0.004300
     27 HCA3         1.7500    -0.9310     1.9280 h1         1 AC1       0.032700
     28 HOA3         3.8560    -0.6900     1.3220 ho         1 AC1       0.399000
     29 HCA4         1.7330     2.1060     1.7710 h1         1 AC1       0.061700
     30 HN4          1.9490     0.1610     3.8610 hn         1 AC1       0.257800
     31 HCA5        -0.4880     0.1350     2.4170 h1         1 AC1       0.038700
     32 H6A1        -0.6420     2.0930     3.8560 hc         1 AC1       0.016367
     33 H6A2        -0.3690     3.1710     2.4810 hc         1 AC1       0.016367
     34 H6A3        -1.8660     2.2350     2.5870 hc         1 AC1       0.016367
     35 HCB1         3.4590     2.0170     2.8780 h1         1 AC1       0.062700
     36 HCB2         4.2640     0.4470     4.5100 h1         1 AC1      -0.003300
     37 HO2B         3.2300     0.1710     6.3460 ho         1 AC1       0.375000
     38 HCB3         5.5970     1.9130     5.9280 h1         1 AC1       0.001700
     39 HOB3         6.4770     2.7000     4.1690 ho         1 AC1       0.385000
     40 HO4          4.2870     3.5520     7.9200 ho         1 AC1       0.373000
     41 HC7          1.6190     3.7670     3.6980 ha         1 AC1       0.130000
     42 HC61         2.1620     5.4510     6.4610 h1         1 AC1      -0.013300
     43 HC62         3.2630     6.1420     5.2620 h1         1 AC1      -0.013300
     44 HO6B         1.0780     6.5480     4.7050 ho         1 AC1       0.386000
     45 HO1         -1.1350    -1.5830     0.1820 ho         1 AC1       0.399000
@<TRIPOS>BOND
     1     1     3 1   
     2     1    10 1   
     3     1    22 1   
     4     1    23 1   
     5     2     3 1   
     6     2    24 1   
     7     3     5 1   
     8     3    25 1   
     9     4    15 1   
    10     4    17 1   
    11     4    18 1   
    12     4    26 1   
    13     5     6 1   
    14     5     7 1   
    15     5    27 1   
    16     6    28 1   
    17     7     8 1   
    18     7     9 1   
    19     7    29 1   
    20     8    12 1   
    21     8    30 1   
    22     9    10 1   
    23     9    11 1   
    24     9    31 1   
    25    11    32 1   
    26    11    33 1   
    27    11    34 1   
    28    12    13 1   
    29    12    19 1   
    30    12    35 1   
    31    13    14 1   
    32    13    15 1   
    33    13    36 1   
    34    14    37 1   
    35    15    16 1   
    36    15    38 1   
    37    16    39 1   
    38    17    40 1   
    39    18    19 2   
    40    18    20 1   
    41    19    41 1   
    42    20    21 1   
    43    20    42 1   
    44    20    43 1   
    45    21    44 1   
    46    22    45 1   
@<TRIPOS>SUBSTRUCTURE
     1 AC1         1 TEMP              0 ****  ****    0 ROOT
