@<TRIPOS>MOLECULE
molecule
   28    29     1     0     0
SMALL
bcc


@<TRIPOS>ATOM
      1 C3'          0.0000     0.0000     0.0000 c3         1 AC2       0.145400
      2 O3'          1.4280     0.0000     0.0000 oh         1 AC2      -0.603800
      3 C2'         -0.5100     0.0000     1.4420 c3         1 AC2       0.133400
      4 O1'         -0.0340     1.1670     2.1160 os         1 AC2      -0.402600
      5 C1'         -0.5420     1.1090     3.4500 c3         1 AC2       0.243100
      6 N9          -0.0870     2.2840     4.1970 na         1 AC2      -0.161900
      7 C8           0.7000     3.2900     3.7170 cc         1 AC2       0.524400
      8 N7           0.9080     4.1710     4.6510 nd         1 AC2      -0.619000
      9 C5           0.2710     3.7840     5.7820 cd         1 AC2       0.318800
     10 C6           0.1470     4.3330     7.0800 c          1 AC2       0.623000
     11 O6           0.6890     5.3870     7.3670 o          1 AC2      -0.524500
     12 N1          -0.5930     3.6640     7.9910 ns         1 AC2      -0.467400
     13 C2          -1.1900     2.4850     7.6620 cd         1 AC2       0.441800
     14 N2          -1.9300     1.8240     8.6100 nz         1 AC2      -0.724600
     15 N3          -1.0830     1.9640     6.4590 nc         1 AC2      -0.551100
     16 C4          -0.3710     2.5730     5.5030 cc         1 AC2       0.008800
     17 H3'1        -0.3610     0.8850    -0.5110 h1         1 AC2       0.043200
     18 H3'2        -0.3610    -0.8850    -0.5110 h1         1 AC2       0.043200
     19 HO'3         1.7420    -0.0910    -0.8840 ho         1 AC2       0.418000
     20 H2'1        -0.1480    -0.8850     1.9530 h1         1 AC2       0.044700
     21 H2'2        -1.5930    -0.0000     1.4420 h1         1 AC2       0.044700
     22 H1'1        -0.1810     0.2100     3.9360 h2         1 AC2       0.060200
     23 H1'2        -1.6250     1.0950     3.4240 h2         1 AC2       0.060200
     24 H8           1.0920     3.3470     2.7090 h5         1 AC2       0.120100
     25 HN1         -0.7020     4.0370     8.9140 hn         1 AC2       0.349500
     26 HN21        -2.6930     2.4030     8.9010 hn         1 AC2       0.476800
     27 HN22        -2.2860     0.9730     8.2220 hn         1 AC2       0.476800
     28 H23         -1.3510     1.6150     9.3990 hn         1 AC2       0.476800
@<TRIPOS>BOND
     1     1     2 1
     2     1     3 1
     3     1    17 1
     4     1    18 1
     5     2    19 1
     6     3     4 1
     7     3    20 1
     8     3    21 1
     9     4     5 1
    10     5     6 1
    11     5    22 1
    12     5    23 1
    13     6     7 1
    14     6    16 1
    15     7     8 2
    16     7    24 1
    17     8     9 1
    18     9    10 1
    19     9    16 2
    20    10    11 2
    21    10    12 1
    22    12    13 1
    23    12    25 1
    24    13    14 1
    25    13    15 2
    26    14    26 1
    27    14    27 1
    28    15    16 1
    29    28    14 1
@<TRIPOS>SUBSTRUCTURE
     1 AC2         1 TEMP              0 ****  ****    0 ROOT
