@<TRIPOS>MOLECULE
AC4
   35    36     1     0     0
SMALL
bcc


@<TRIPOS>ATOM
      1 O5          0.2730    1.3980   -0.0620 o         1 AC4     -0.696100
      2 C6          1.2580    0.6140   -0.0300 c         1 AC4      0.621600
      3 N2          1.7780    0.2560    1.1970 n         1 AC4     -0.669000
      4 C3A         1.8600    0.0620   -1.2360 cc        1 AC4      0.121800
      5 C7A         1.3670    0.2810   -2.5670 cd        1 AC4      0.111000
      6 N3          0.2000    0.9100   -2.9590 nh        1 AC4     -0.809200
      7 N1          3.0270   -0.7230   -1.2900 nc        1 AC4     -0.681000
      8 C5          3.2500   -0.9640   -2.5890 cd        1 AC4      0.429400
      9 N           2.2680   -0.3820   -3.4160 na        1 AC4     -0.229900
     10 C1          2.1690   -0.4200   -4.8650 c3        1 AC4      0.220800
     11 C2          2.3500    0.9790   -5.5440 c3        1 AC4      0.089100
     12 C3          3.3470    0.7270   -6.6940 c3        1 AC4      0.136100
     13 O2          2.7000    0.9750   -7.9210 oh        1 AC4     -0.692800
     14 O1          1.0780    1.4660   -5.9150 oh        1 AC4     -0.640800
     15 O           3.1520   -1.3050   -5.3800 os        1 AC4     -0.437600
     16 C           3.7550   -0.7520   -6.5800 c3        1 AC4      0.066100
     17 C4          5.2880   -0.9740   -6.5320 c3        1 AC4      0.237400
     18 O3          5.7620   -1.2700   -7.7790 os        1 AC4     -0.557200
     19 P           6.5190    0.0790   -8.5890 p5        1 AC4      1.336900
     20 OP1         7.5800    0.4680   -7.6020 o         1 AC4     -0.930500
     21 O4          6.9380   -0.4930   -9.9060 o         1 AC4     -0.930500
     22 OP2         5.3180    1.0070   -8.5990 o         1 AC4     -0.930500
     23 H11         2.6190   -0.2570    1.2530 hn        1 AC4      0.302000
     24 H12         1.4530    0.7260    2.0020 hn        1 AC4      0.302000
     25 H9          0.2100    1.3010   -3.8810 hn        1 AC4      0.426300
     26 H10        -0.1600    1.5130   -2.2460 hn        1 AC4      0.426300
     27 H13         4.0800   -1.5320   -3.0310 h5        1 AC4      0.090100
     28 H2          1.1470   -0.8410   -5.1140 h2        1 AC4      0.059700
     29 H3          2.7650    1.7380   -4.8280 h1        1 AC4      0.064700
     30 H4          4.2450    1.4010   -6.5990 h1        1 AC4      0.123700
     31 H5          3.4300    1.0630   -8.5840 ho        1 AC4      0.519000
     32 H1          0.9700    1.3340   -6.8680 ho        1 AC4      0.441000
     33 H6          3.3240   -1.3370   -7.4380 h1        1 AC4      0.073700
     34 H7          5.4690   -1.8460   -5.8360 h1        1 AC4      0.001700
     35 H8          5.7920   -0.0580   -6.1110 h1        1 AC4      0.001700
@<TRIPOS>BOND
     1    1    2 2   
     2    2    3 1   
     3    2    4 1   
     4    3   23 1   
     5    3   24 1   
     6    4    5 2   
     7    4    7 1   
     8    5    6 1   
     9    5    9 1   
    10    6   25 1   
    11    6   26 1   
    12    7    8 2   
    13    8    9 1   
    14    8   27 1   
    15    9   10 1   
    16   10   11 1   
    17   10   15 1   
    18   10   28 1   
    19   11   12 1   
    20   11   14 1   
    21   11   29 1   
    22   12   13 1   
    23   12   16 1   
    24   12   30 1   
    25   13   31 1   
    26   14   32 1   
    27   15   16 1   
    28   16   17 1   
    29   16   33 1   
    30   17   18 1   
    31   17   34 1   
    32   17   35 1   
    33   18   19 1   
    34   19   20 1   
    35   19   21 1   
    36   19   22 1   
@<TRIPOS>SUBSTRUCTURE
     1 AC4         1 TEMP              0 ****  ****    0 ROOT
