@<TRIPOS>MOLECULE
molecule
   18    18     1     0     0
SMALL
bcc


@<TRIPOS>ATOM
      1 C1           0.0000     0.0000     0.0000 ca         1 AC6       0.135100
      2 C2           1.3900     0.0000     0.0000 ca         1 AC6      -0.169500
      3 C3           2.0790     0.0000     1.1860 ca         1 AC6      -0.065500
      4 C4           1.3780     0.0010     2.3990 ca         1 AC6      -0.191600
      5 C5          -0.0220    -0.0050     2.3940 ca         1 AC6      -0.065500
      6 C6          -0.7010     0.0010     1.2020 ca         1 AC6      -0.169500
      7 O1          -0.6760     0.0000    -1.1760 oh         1 AC6      -0.522100
      8 O2           3.3230     0.0010     3.6750 o          1 AC6      -0.529100
      9 C7           2.1100     0.0010     3.6720 c          1 AC6       0.576700
     10 C8           1.3540     0.0020     4.9760 c3         1 AC6      -0.191100
     11 H2           1.9310    -0.0010    -0.9390 ha         1 AC6       0.145000
     12 H3           3.1620     0.0020     1.1850 ha         1 AC6       0.147000
     13 H5          -0.5680    -0.0040     3.3290 ha         1 AC6       0.147000
     14 H6          -1.7840    -0.0010     1.1970 ha         1 AC6       0.145000
     15 HO1         -0.8320     0.8890    -1.4490 ho         1 AC6       0.425000
     16 H81          0.7320    -0.8830     5.0340 hc         1 AC6       0.061700
     17 H82          0.7300     0.8860     5.0310 hc         1 AC6       0.061700
     18 H83          2.0560     0.0040     5.8010 hc         1 AC6       0.061700
@<TRIPOS>BOND
     1     1     2 ar
     2     1     6 ar
     3     1     7 1
     4     2     3 ar
     5     2    11 1
     6     3     4 ar
     7     3    12 1
     8     4     5 ar
     9     4     9 1
    10     5     6 ar
    11     5    13 1
    12     6    14 1
    13     7    15 1
    14     8     9 2
    15     9    10 1
    16    10    16 1
    17    10    17 1
    18    10    18 1
@<TRIPOS>SUBSTRUCTURE
     1 AC6         1 TEMP              0 ****  ****    0 ROOT
