@<TRIPOS>MOLECULE
AC6
   18    18     1     0     0
SMALL
bcc


@<TRIPOS>ATOM
      1 C1         -0.0810    0.1180    0.0330 ca        1 AC6      0.154100
      2 C2          1.3210    0.1570    0.0060 ca        1 AC6     -0.202500
      3 C3          2.0230    0.1200    1.2060 ca        1 AC6     -0.045000
      4 C4          1.3460    0.0450    2.4320 ca        1 AC6     -0.214600
      5 C5         -0.0550    0.0070    2.4410 ca        1 AC6     -0.045000
      6 C6         -0.7760    0.0420    1.2540 ca        1 AC6     -0.202500
      7 O1         -0.8470    0.1500   -1.1060 oh        1 AC6     -0.492100
      8 O2          3.3750    0.0390    3.6620 o         1 AC6     -0.543100
      9 C7          2.1360    0.0090    3.6790 c         1 AC6      0.581700
     10 C8          1.3850   -0.0660    4.9710 c3        1 AC6     -0.198100
     11 H2          1.8570    0.2160   -0.9510 ha        1 AC6      0.147000
     12 H3          3.1270    0.1500    1.2050 ha        1 AC6      0.148000
     13 H5         -0.6030   -0.0520    3.3940 ha        1 AC6      0.148000
     14 H6         -1.8740    0.0130    1.2510 ha        1 AC6      0.147000
     15 HO1        -0.2510    0.2020   -1.8680 ho        1 AC6      0.424000
     16 H81         0.7160    0.8220    5.0760 hc        1 AC6      0.064033
     17 H82         2.0980   -0.0850    5.8320 hc        1 AC6      0.064033
     18 H83         0.7640   -0.9940    4.9980 hc        1 AC6      0.064033
@<TRIPOS>BOND
     1    1    2 ar  
     2    1    6 ar  
     3    1    7 1   
     4    2    3 ar  
     5    2   11 1   
     6    3    4 ar  
     7    3   12 1   
     8    4    5 ar  
     9    4    9 1   
    10    5    6 ar  
    11    5   13 1   
    12    6   14 1   
    13    7   15 1   
    14    8    9 2   
    15    9   10 1   
    16   10   16 1   
    17   10   17 1   
    18   10   18 1   
@<TRIPOS>SUBSTRUCTURE
     1 AC6         1 TEMP              0 ****  ****    0 ROOT
