@<TRIPOS>MOLECULE
AC7
   63    64     1     0     0
SMALL
bcc


@<TRIPOS>ATOM
      1 C1           0.0000     0.0000     0.0000 ca         1 AC7      -0.012500
      2 O1           3.5700     0.0030     1.2970 os         1 AC7      -0.340900
      3 C2           1.4400     0.0000     0.0000 ca         1 AC7      -0.160600
      4 C3           2.1580     0.0000     1.2630 ca         1 AC7       0.231600
      5 C4           1.4080     0.0130     2.4770 ca         1 AC7      -0.046000
      6 C5          -0.0040     0.0080     2.4530 ca         1 AC7      -0.015000
      7 C6          -0.7250    -0.0010     1.2300 ca         1 AC7      -0.078800
      8 C7           2.1810     0.0020    -1.3480 c          1 AC7       0.724700
      9 C8          -2.2640    -0.0140     1.2460 ce         1 AC7      -0.007400
     10 C9          -3.0100    -1.0400     0.7240 c2         1 AC7      -0.106200
     11 C10         -4.3140     3.3610     3.2600 ca         1 AC7       0.231600
     12 C11         -5.0500     2.1340     2.9820 ca         1 AC7      -0.046000
     13 C12         -4.3920     1.0500     2.3250 ca         1 AC7      -0.015000
     14 C13         -3.0130     1.1480     1.9330 ca         1 AC7      -0.078800
     15 C14         -2.3340     2.3400     2.1920 ca         1 AC7      -0.012500
     16 C15         -2.9300     3.4460     2.8410 ca         1 AC7      -0.160600
     17 C16         -2.0270     4.6520     3.0470 c          1 AC7       0.724700
     18 C17         -2.4820    -2.3070     0.0510 c3         1 AC7      -0.073200
     19 C18         -2.4280    -2.1480    -1.4500 c3         1 AC7      -0.042400
     20 C19         -1.8620    -3.4070    -2.0610 c3         1 AC7      -0.093400
     21 C20         -0.4770    -3.2110    -2.6190 c          1 AC7       0.708100
     22 C21          1.3550    -4.0880    -4.1270 c3         1 AC7       0.276700
     23 C22          4.3500    -1.2020     1.4330 c3         1 AC7       0.275700
     24 C23         -4.9620     4.4840     5.3460 c3         1 AC7       0.275700
     25 C24          1.6210     1.0110    -3.5700 c3         1 AC7       0.189200
     26 C25         -1.4390     6.8270     3.9920 c3         1 AC7       0.189200
     27 O35          3.4150    -0.0140    -1.4210 o          1 AC7      -0.538000
     28 O36         -0.8420     4.5790     2.7200 o          1 AC7      -0.538000
     29 O37          0.1530    -2.2400    -2.3370 o          1 AC7      -0.527000
     30 N69          2.4950     0.0550     4.6470 n1         1 AC7      -0.379300
     31 N74         -7.4240     1.8520     3.6380 n1         1 AC7      -0.379300
     32 C77          1.9860     0.0240     3.6170 cg         1 AC7       0.248300
     33 C82         -6.3060     1.9820     3.3190 cg         1 AC7       0.248300
     34 H1          -0.5420     0.0000    -0.9380 ha         1 AC7       0.138500
     35 H5          -0.5610     0.0180     3.3820 ha         1 AC7       0.118000
     36 H9          -4.0920    -0.9970     0.7630 ha         1 AC7       0.103000
     37 H12         -4.9330     0.1350     2.1160 ha         1 AC7       0.118000
     38 H14         -1.3020     2.4540     1.8820 ha         1 AC7       0.138500
     39 H17         -2.5790    -3.1450     0.7300 hc         1 AC7       0.052700
     40 H17A        -1.4380    -2.1700    -0.2070 hc         1 AC7       0.052700
     41 H18         -3.2820    -1.5700    -1.7830 hc         1 AC7       0.043700
     42 H18A        -1.5150    -1.6340    -1.7260 hc         1 AC7       0.043700
     43 H19         -2.2240    -3.5100    -3.0770 hc         1 AC7       0.047200
     44 H19A        -2.1770    -4.2640    -1.4780 hc         1 AC7       0.047200
     45 H21          2.1180    -4.0460    -3.3590 h1         1 AC7      -0.003633
     46 H21A         1.3040    -3.1330    -4.6360 h1         1 AC7      -0.003633
     47 H21B         1.6030    -4.8640    -4.8400 h1         1 AC7      -0.003633
     48 H22          3.7250    -2.0620     1.2230 h1         1 AC7      -0.003133
     49 H22A         5.1780    -1.1770     0.7350 h1         1 AC7      -0.003133
     50 H22B         4.7320    -1.2720     2.4450 h1         1 AC7      -0.003133
     51 H23         -4.1720     3.8620     5.7490 h1         1 AC7      -0.003133
     52 H23A        -5.9090     4.1920     5.7810 h1         1 AC7      -0.003133
     53 H23B        -4.7600     5.5220     5.5830 h1         1 AC7      -0.003133
     54 H24          0.9700     0.8210    -4.4150 h1         1 AC7       0.018200
     55 H24A         2.5020     0.3850    -3.6460 h1         1 AC7       0.018200
     56 H24B         1.9170     2.0530    -3.5690 h1         1 AC7       0.018200
     57 H25         -0.8570     7.0910     3.1170 h1         1 AC7       0.018200
     58 H25A        -1.3420     7.6060     4.7390 h1         1 AC7       0.018200
     59 H25B        -1.0770     5.8900     4.3970 h1         1 AC7       0.018200
     60 O2          -4.9420     4.4140     3.9050 os         1 AC7      -0.340900
     61 O3           0.0690    -4.2430    -3.5150 os         1 AC7      -0.462900
     62 O5           1.4190     0.0180    -2.5890 os         1 AC7      -0.425400
     63 O7          -2.4660     5.9030     3.6190 os         1 AC7      -0.425400
@<TRIPOS>BOND
     1     1     3 ar  
     2     1     7 ar  
     3     1    34 1   
     4     2     4 1   
     5     2    23 1   
     6     3     4 ar  
     7     3     8 1   
     8     4     5 ar  
     9     5     6 ar  
    10     5    32 1   
    11     6     7 ar  
    12     6    35 1   
    13     7     9 1   
    14     8    27 2   
    15     8    62 1   
    16     9    10 2   
    17     9    14 1   
    18    10    18 1   
    19    10    36 1   
    20    11    12 ar  
    21    11    16 ar  
    22    11    60 1   
    23    12    13 ar  
    24    12    33 1   
    25    13    14 ar  
    26    13    37 1   
    27    14    15 ar  
    28    15    16 ar  
    29    15    38 1   
    30    16    17 1   
    31    17    28 2   
    32    17    63 1   
    33    18    19 1   
    34    18    39 1   
    35    18    40 1   
    36    19    20 1   
    37    19    41 1   
    38    19    42 1   
    39    20    21 1   
    40    20    43 1   
    41    20    44 1   
    42    21    29 2   
    43    21    61 1   
    44    22    45 1   
    45    22    46 1   
    46    22    47 1   
    47    22    61 1   
    48    23    48 1   
    49    23    49 1   
    50    23    50 1   
    51    24    51 1   
    52    24    52 1   
    53    24    53 1   
    54    24    60 1   
    55    25    54 1   
    56    25    55 1   
    57    25    56 1   
    58    25    62 1   
    59    26    57 1   
    60    26    58 1   
    61    26    59 1   
    62    26    63 1   
    63    30    32 3   
    64    31    33 3   
@<TRIPOS>SUBSTRUCTURE
     1 AC7         1 TEMP              0 ****  ****    0 ROOT
