@<TRIPOS>MOLECULE
molecule
   63    64     1     0     0
SMALL
bcc


@<TRIPOS>ATOM
      1 C1           0.0000     0.0000     0.0000 ca         1 AC7      -0.053500
      2 O1           3.5700     0.0030     1.2970 os         1 AC7      -0.296900
      3 C2           1.4400     0.0000     0.0000 ca         1 AC7      -0.136600
      4 C3           2.1580     0.0000     1.2630 ca         1 AC7       0.210100
      5 C4           1.4080     0.0130     2.4770 ca         1 AC7      -0.059500
      6 C5          -0.0040     0.0080     2.4530 ca         1 AC7      -0.019500
      7 C6          -0.7250    -0.0010     1.2300 ca         1 AC7      -0.080300
      8 C7           2.1810     0.0020    -1.3480 c          1 AC7       0.610200
      9 C8          -2.2640    -0.0140     1.2460 ce         1 AC7      -0.133400
     10 C9          -3.0100    -1.0400     0.7240 c2         1 AC7      -0.126200
     11 C10         -4.3140     3.3610     3.2600 ca         1 AC7       0.210100
     12 C11         -5.0500     2.1340     2.9820 ca         1 AC7      -0.059500
     13 C12         -4.3920     1.0500     2.3250 ca         1 AC7      -0.019500
     14 C13         -3.0130     1.1480     1.9330 ca         1 AC7      -0.080300
     15 C14         -2.3340     2.3400     2.1920 ca         1 AC7      -0.053500
     16 C15         -2.9300     3.4460     2.8410 ca         1 AC7      -0.136600
     17 C16         -2.0270     4.6520     3.0470 c          1 AC7       0.610200
     18 C17         -2.4820    -2.3070     0.0510 c3         1 AC7      -0.158200
     19 C18         -2.4280    -2.1480    -1.4500 c3         1 AC7      -0.001400
     20 C19         -1.8620    -3.4070    -2.0610 c3         1 AC7      -0.338400
     21 C20         -0.4770    -3.2110    -2.6190 c          1 AC7       0.784100
     22 C21          1.3550    -4.0880    -4.1270 c3         1 AC7       0.130700
     23 C22          4.3500    -1.2020     1.4330 c3         1 AC7      -0.125300
     24 C23         -4.9620     4.4840     5.3460 c3         1 AC7      -0.125300
     25 C24          1.6210     1.0110    -3.5700 c3         1 AC7      -0.047300
     26 C25         -1.4390     6.8270     3.9920 c3         1 AC7      -0.047300
     27 O35          3.4150    -0.0140    -1.4210 o          1 AC7      -0.477500
     28 O36         -0.8420     4.5790     2.7200 o          1 AC7      -0.477500
     29 O37          0.1530    -2.2400    -2.3370 o          1 AC7      -0.541000
     30 N69          2.4950     0.0550     4.6470 n1         1 AC7      -0.328300
     31 N74         -7.4230     1.8480     3.6390 n1         1 AC7      -0.328300
     32 C77          1.9860     0.0240     3.6170 cg         1 AC7       0.230300
     33 C82         -6.3060     1.9820     3.3190 cg         1 AC7       0.230300
     34 H1          -0.5410     0.0000    -0.9380 ha         1 AC7       0.161500
     35 H5          -0.5610     0.0180     3.3820 ha         1 AC7       0.170500
     36 H9          -2.5180    -1.8930     0.2740 ha         1 AC7       0.205000
     37 H12         -4.9330     0.1350     2.1160 ha         1 AC7       0.170500
     38 H14         -1.2960     2.4470     1.9010 ha         1 AC7       0.161500
     39 H17         -1.9200    -2.8910     0.7700 hc         1 AC7       0.076200
     40 H17A        -1.8360    -2.0340    -0.7760 hc         1 AC7       0.076200
     41 H18         -1.8350    -1.2760    -1.7000 hc         1 AC7       0.098200
     42 H18A        -1.9770    -3.0290    -1.8910 hc         1 AC7       0.098200
     43 H19         -1.6800    -4.1370    -1.2810 hc         1 AC7       0.080200
     44 H19A        -0.9310    -3.1780    -2.5650 hc         1 AC7       0.080200
     45 H21          2.0890    -3.8430    -3.3690 h1         1 AC7       0.050367
     46 H21A         1.4020    -3.3550    -4.9240 h1         1 AC7       0.050367
     47 H21B         1.5650    -5.0720    -4.5280 h1         1 AC7       0.050367
     48 H22          4.9720    -1.3310     0.5560 h1         1 AC7       0.114033
     49 H22A         4.9770    -1.1280     2.3130 h1         1 AC7       0.114033
     50 H22B         3.6860    -2.0520     1.5340 h1         1 AC7       0.114033
     51 H23         -4.3450     3.6930     5.7550 h1         1 AC7       0.114033
     52 H23A        -5.5930     4.0820     4.5630 h1         1 AC7       0.114033
     53 H23B        -5.5810     4.9010     6.1310 h1         1 AC7       0.114033
     54 H24          2.4410     1.6520    -3.2720 h1         1 AC7       0.076200
     55 H24A         1.9800     0.2720    -4.2770 h1         1 AC7       0.076200
     56 H24B         1.2180     0.5110    -2.6980 h1         1 AC7       0.076200
     57 H25         -1.0940     7.3570     3.1120 h1         1 AC7       0.076200
     58 H25A        -1.6140     7.5340     4.7940 h1         1 AC7       0.076200
     59 H25B        -0.6880     6.1100     4.2990 h1         1 AC7       0.076200
     60 O2          -4.9420     4.4140     3.9050 os         1 AC7      -0.296900
     61 O3           0.0690    -4.2430    -3.5150 os         1 AC7      -0.452900
     62 O5           1.4190     0.0180    -2.5890 os         1 AC7      -0.342400
     63 O7          -2.4660     5.9030     3.6190 os         1 AC7      -0.342400
@<TRIPOS>BOND
     1     3     1 ar
     2     1     7 ar
     3     1    34 1
     4    23     2 1
     5     2     4 1
     6     4     3 ar
     7     8     3 1
     8    11    60 1
     9    24    60 1
    10     4     5 ar
    11    22    61 1
    12    61    21 1
    13    32     5 1
    14     5     6 ar
    15     6     7 ar
    16     6    35 1
    17     8    62 1
    18    62    25 1
    19     7     9 1
    20    27     8 2
    21    17    63 1
    22    26    63 1
    23     9    10 2
    24     9    14 1
    25    18    10 1
    26    10    36 1
    27    16    11 ar
    28    12    11 ar
    29    13    12 ar
    30    12    33 1
    31    14    13 ar
    32    13    37 1
    33    14    15 ar
    34    15    16 ar
    35    15    38 1
    36    17    16 1
    37    28    17 2
    38    18    19 1
    39    18    39 1
    40    18    40 1
    41    20    19 1
    42    19    41 1
    43    19    42 1
    44    21    20 1
    45    20    43 1
    46    20    44 1
    47    29    21 2
    48    22    45 1
    49    22    46 1
    50    22    47 1
    51    23    48 1
    52    23    49 1
    53    23    50 1
    54    24    51 1
    55    24    52 1
    56    24    53 1
    57    25    54 1
    58    25    55 1
    59    25    56 1
    60    26    57 1
    61    26    58 1
    62    26    59 1
    63    30    32 3
    64    33    31 3
@<TRIPOS>SUBSTRUCTURE
     1 AC7         1 TEMP              0 ****  ****    0 ROOT
