@<TRIPOS>MOLECULE
molecule
   46    45     1     0     0
SMALL
bcc


@<TRIPOS>ATOM
      1 C1           0.0000     0.0000     0.0000 c          1 ACC       0.661100
      2 N2          -0.6740    -0.0000    -1.1670 ns         1 ACC      -0.535900
      3 C3           1.5070     0.0000     0.0000 c3         1 ACC       0.054700
      4 C4          -2.1390     0.0000    -1.1670 c3         1 ACC       0.017700
      5 C5          -2.6490    -0.6100    -2.4740 c3         1 ACC       0.041700
      6 O6          -0.6070     0.0010     1.0500 o          1 ACC      -0.612100
      7 N7           1.9960     0.0000     1.3810 ns         1 ACC      -0.554900
      8 C8           3.2170     0.4930     1.6640 c          1 ACC       0.659100
      9 C9           3.7200     0.4940     3.0850 c3         1 ACC      -0.150400
     10 C10          5.1220     1.1030     3.1290 c3         1 ACC      -0.084400
     11 C13          5.6330     1.1030     4.5720 c3         1 ACC      -0.095400
     12 C16          7.0350     1.7130     4.6170 c3         1 ACC      -0.014500
     13 N19          7.9670     0.8530     3.8740 nz         1 ACC      -0.791600
     14 C20          7.4890     1.8260     6.0490 c          1 ACC       0.870600
     15 O21          7.0580     2.8440     6.8110 o          1 ACC      -0.784300
     16 O22          8.2390     1.0000     6.5130 o          1 ACC      -0.784300
     17 C23         -2.6410     1.4160    -1.0430 c          1 ACC       0.886600
     18 O25         -3.9600     1.6600    -1.0220 o          1 ACC      -0.825800
     19 O26         -1.8560     2.3310    -0.9630 o          1 ACC      -0.825800
     20 O27          3.9120     0.9380     0.7740 o          1 ACC      -0.609100
     21 C35          2.0170    -1.2500    -0.7210 c3         1 ACC       0.025700
     22 S37          3.8310    -1.2500    -0.7210 sh         1 ACC      -0.393900
     23 S41         -2.1690    -2.3570    -2.5540 ss         1 ACC      -0.415200
     24 C42         -2.8850    -2.8080    -4.1590 c3         1 ACC       0.003000
     25 H2          -0.1740     0.0280    -2.0330 hn         1 ACC       0.304500
     26 H3           1.8680     0.8840    -0.5110 h1         1 ACC       0.109700
     27 H4          -2.5000    -0.5850    -0.3300 h1         1 ACC       0.089700
     28 H52         -3.7290    -0.5300    -2.5130 h1         1 ACC       0.074200
     29 H51         -2.2170    -0.0780    -3.3140 h1         1 ACC       0.074200
     30 H7           1.4230    -0.3680     2.1150 hn         1 ACC       0.337500
     31 H92          3.0520     1.0800     3.7040 hc         1 ACC       0.067700
     32 H91          3.7560    -0.5240     3.4560 hc         1 ACC       0.067700
     33 H102         5.0860     2.1200     2.7590 hc         1 ACC       0.046700
     34 H101         5.7900     0.5170     2.5100 hc         1 ACC       0.046700
     35 H132         5.6700     0.0860     4.9420 hc         1 ACC       0.082200
     36 H131         4.9650     1.6890     5.1910 hc         1 ACC       0.082200
     37 H16          7.0150     2.6980     4.1650 hx         1 ACC       0.106700
     38 H193         8.9080     1.1120     4.0960 hn         1 ACC       0.439133
     39 H192         7.8150    -0.1030     4.1300 hn         1 ACC       0.439133
     40 H191         7.8130     0.9640     2.8920 hn         1 ACC       0.439133
     41 H352         1.6560    -2.1340    -0.2110 h1         1 ACC       0.066200
     42 H351         1.6560    -1.2490    -1.7430 h1         1 ACC       0.066200
     43 H37          4.2740    -2.1940    -1.5420 hs         1 ACC       0.169800
     44 H423        -3.9570    -2.6570    -4.1310 h1         1 ACC       0.049367
     45 H422        -2.6720    -3.8490    -4.3690 h1         1 ACC       0.049367
     46 H421        -2.4530    -2.1870    -4.9340 h1         1 ACC       0.049367
@<TRIPOS>BOND
     1     1     2 1
     2     1     3 1
     3     1     6 2
     4     2     4 1
     5     2    25 1
     6     3     7 1
     7     3    21 1
     8     3    26 1
     9     4     5 1
    10     4    17 1
    11     4    27 1
    12     5    23 1
    13     5    28 1
    14     5    29 1
    15     7     8 1
    16     7    30 1
    17     8     9 1
    18     8    20 2
    19     9    10 1
    20     9    31 1
    21     9    32 1
    22    10    11 1
    23    10    33 1
    24    10    34 1
    25    11    12 1
    26    11    35 1
    27    11    36 1
    28    12    13 1
    29    12    14 1
    30    12    37 1
    31    13    38 1
    32    13    39 1
    33    13    40 1
    34    14    15 1
    35    14    16 1
    36    17    18 1
    37    17    19 1
    38    21    22 1
    39    21    41 1
    40    21    42 1
    41    22    43 1
    42    23    24 1
    43    24    44 1
    44    24    45 1
    45    24    46 1
@<TRIPOS>SUBSTRUCTURE
     1 ACC         1 TEMP              0 ****  ****    0 ROOT
