@<TRIPOS>MOLECULE
molecule
   53    52     1     0     0
SMALL
bcc


@<TRIPOS>ATOM
      1 C1           0.0000     0.0000     0.0000 c          1 ACD       0.892600
      2 C2           1.5070     0.0000     0.0000 c3         1 ACD      -0.193400
      3 C3           2.0180     0.0000     1.4410 c3         1 ACD      -0.071400
      4 C4           3.5470     0.0000     1.4420 c3         1 ACD       0.009800
      5 C5           4.0490     0.0010     2.8620 c2         1 ACD      -0.197200
      6 C6           4.9170    -0.9010     3.2500 c2         1 ACD      -0.208200
      7 C7           5.5370    -1.8330     2.2420 c3         1 ACD       0.284000
      8 C8           7.0370    -1.7900     2.3750 c2         1 ACD      -0.201200
      9 C9           7.7130    -2.9010     2.5340 c2         1 ACD      -0.263200
     10 C10          7.0020    -4.2290     2.4790 c3         1 ACD       0.035000
     11 C11          7.6850    -5.1220     1.4750 c2         1 ACD      -0.259200
     12 C12          8.0610    -6.3280     1.8210 c2         1 ACD      -0.128200
     13 C13          7.6660    -6.8840     3.1650 c3         1 ACD       0.153000
     14 C14          7.0070    -8.2250     2.9800 c2         1 ACD      -0.203200
     15 C15          7.4350    -9.2640     3.6540 c2         1 ACD      -0.238200
     16 C16          8.4720    -9.0870     4.7340 c3         1 ACD       0.019800
     17 C17          7.9720    -9.7280     6.0290 c3         1 ACD      -0.092400
     18 C18          9.0240    -9.5490     7.1250 c3         1 ACD      -0.091400
     19 C19          8.5240   -10.1900     8.4220 c3         1 ACD      -0.082400
     20 C20          9.5760   -10.0100     9.5170 c3         1 ACD      -0.092100
     21 O1          -0.6040    -0.0000     1.0460 o          1 ACD      -0.848300
     22 O2          -0.6720    -0.0000    -1.1620 o          1 ACD      -0.848300
     23 H21          1.8680    -0.8840    -0.5110 hc         1 ACD       0.027200
     24 H22          1.8680     0.8840    -0.5110 hc         1 ACD       0.027200
     25 H31          1.6560     0.8840     1.9520 hc         1 ACD       0.063200
     26 H32          1.6570    -0.8850     1.9520 hc         1 ACD       0.063200
     27 H41          3.9080    -0.8840     0.9310 hc         1 ACD       0.044200
     28 H42          3.9080     0.8850     0.9310 hc         1 ACD       0.044200
     29 H5           4.6110     0.4820     2.0710 ha         1 ACD       0.125000
     30 H6           4.4080    -1.8060     2.9380 ha         1 ACD       0.011000
     31 H71          5.2540    -1.5240     1.2430 hc         1 ACD       0.064200
     32 H72          5.1880    -2.8430     2.4210 hc         1 ACD       0.064200
     33 H8           6.5460    -2.0140     1.4360 ha         1 ACD       0.024000
     34 H9           7.1870    -3.3110     3.3880 ha         1 ACD       0.091000
     35 H101         7.0310    -4.6950     3.4560 hc         1 ACD       0.059200
     36 H102         5.9710    -4.0740     2.1830 hc         1 ACD       0.059200
     37 H11          8.1140    -4.6650     2.3590 ha         1 ACD       0.169000
     38 H12          8.6370    -6.1030     2.7100 ha         1 ACD       0.054000
     39 H131         8.5500    -6.9980     3.7820 hc         1 ACD       0.040200
     40 H132         6.9740    -6.2050     3.6480 hc         1 ACD       0.040200
     41 H14          6.7200    -7.5700     3.7930 ha         1 ACD       0.009000
     42 H15          8.4910    -9.2270     3.4140 ha         1 ACD       0.105000
     43 H161         9.3960    -9.5620     4.4280 hc         1 ACD       0.039700
     44 H162         8.6460    -8.0300     4.8980 hc         1 ACD       0.039700
     45 H171         7.0480    -9.2530     6.3350 hc         1 ACD       0.053700
     46 H172         7.7980   -10.7850     5.8660 hc         1 ACD       0.053700
     47 H181         9.1980    -8.4930     7.2880 hc         1 ACD       0.037700
     48 H182         9.9480   -10.0250     6.8200 hc         1 ACD       0.037700
     49 H191         7.6000    -9.7150     8.7270 hc         1 ACD       0.042200
     50 H192         8.3500   -11.2470     8.2580 hc         1 ACD       0.042200
     51 H201         9.2230   -10.4640    10.4350 hc         1 ACD       0.032033
     52 H202         9.7500    -8.9530     9.6810 hc         1 ACD       0.032033
     53 H203        10.5010   -10.4850     9.2120 hc         1 ACD       0.032033
@<TRIPOS>BOND
     1     1     2 1
     2     1    21 1
     3     1    22 1
     4     2     3 1
     5     2    23 1
     6     2    24 1
     7     3     4 1
     8     3    25 1
     9     3    26 1
    10     4     5 1
    11     4    27 1
    12     4    28 1
    13     5     6 2
    14     5    29 1
    15     6     7 1
    16     6    30 1
    17     7     8 1
    18     7    31 1
    19     7    32 1
    20     8     9 2
    21     8    33 1
    22     9    10 1
    23     9    34 1
    24    10    11 1
    25    10    35 1
    26    10    36 1
    27    11    12 2
    28    11    37 1
    29    12    13 1
    30    12    38 1
    31    13    14 1
    32    13    39 1
    33    13    40 1
    34    14    15 2
    35    14    41 1
    36    15    16 1
    37    15    42 1
    38    16    17 1
    39    16    43 1
    40    16    44 1
    41    17    18 1
    42    17    45 1
    43    17    46 1
    44    18    19 1
    45    18    47 1
    46    18    48 1
    47    19    20 1
    48    19    49 1
    49    19    50 1
    50    20    51 1
    51    20    52 1
    52    20    53 1
@<TRIPOS>SUBSTRUCTURE
     1 ACD         1 TEMP              0 ****  ****    0 ROOT
