@<TRIPOS>MOLECULE
ACD
   53    52     1     0     0
SMALL
bcc


@<TRIPOS>ATOM
      1 C1          1.3700   -2.0660    5.7100 c         1 ACD      0.908600
      2 C2          2.6160   -2.4270    4.8810 c3        1 ACD     -0.196400
      3 C3          2.8690   -1.4120    3.7940 c3        1 ACD     -0.064400
      4 C4          4.1910   -1.6610    3.0960 c3        1 ACD     -0.060200
      5 C5          4.4590   -0.6890    2.0100 c2        1 ACD     -0.133200
      6 C6          5.4610   -0.8060    1.1300 c2        1 ACD     -0.219200
      7 C7          6.4130   -1.9420    1.1370 c3        1 ACD     -0.016000
      8 C8          7.5490   -1.7860    0.1980 c2        1 ACD     -0.152200
      9 C9          8.5310   -2.6870    0.0760 c2        1 ACD     -0.192200
     10 C10         8.5860   -3.9360    0.8720 c3        1 ACD     -0.020000
     11 C11         9.7390   -4.8100    0.5480 c2        1 ACD     -0.166200
     12 C12         9.9740   -5.9740    1.1650 c2        1 ACD     -0.177200
     13 C13         9.1070   -6.5130    2.2390 c3        1 ACD     -0.021000
     14 C14         9.5440   -7.8290    2.7630 c2        1 ACD     -0.174200
     15 C15         8.9240   -8.4620    3.7660 c2        1 ACD     -0.172200
     16 C16         7.7370   -7.9210    4.4700 c3        1 ACD     -0.053200
     17 C17         7.2030   -8.8730    5.5190 c3        1 ACD     -0.074400
     18 C18         5.9950   -8.2880    6.2190 c3        1 ACD     -0.083400
     19 C19         5.4500   -9.2370    7.2660 c3        1 ACD     -0.076400
     20 C20         4.2510   -8.6520    7.9660 c3        1 ACD     -0.096100
     21 O1          1.1890   -0.8570    6.0350 o         1 ACD     -0.851800
     22 O2          0.5970   -3.0090    6.0450 o         1 ACD     -0.851800
     23 H21         2.4840   -3.4460    4.4410 hc        1 ACD      0.018700
     24 H22         3.4900   -2.4650    5.5800 hc        1 ACD      0.018700
     25 H31         2.8570   -0.3860    4.2490 hc        1 ACD      0.047200
     26 H32         2.0360   -1.4510    3.0450 hc        1 ACD      0.047200
     27 H41         5.0270   -1.6070    3.8480 hc        1 ACD      0.038200
     28 H42         4.2040   -2.7050    2.6770 hc        1 ACD      0.038200
     29 H5          3.7720    0.1720    1.9600 ha        1 ACD      0.125000
     30 H6          5.6110   -0.0470    0.3470 ha        1 ACD      0.109000
     31 H71         6.8130   -2.0870    2.1830 hc        1 ACD      0.056200
     32 H72         5.8550   -2.8910    0.8860 hc        1 ACD      0.056200
     33 H8          7.5560   -0.8710   -0.4150 ha        1 ACD      0.119000
     34 H9          9.3540   -2.5230   -0.6380 ha        1 ACD      0.114000
     35 H101        8.6170   -3.6740    1.9690 hc        1 ACD      0.059700
     36 H102        7.6290   -4.5150    0.7200 hc        1 ACD      0.059700
     37 H11        10.4160   -4.4540   -0.2450 ha        1 ACD      0.118000
     38 H12        10.8460   -6.5860    0.8840 ha        1 ACD      0.117000
     39 H131        9.0650   -5.7710    3.0880 hc        1 ACD      0.060700
     40 H132        8.0490   -6.6010    1.8540 hc        1 ACD      0.060700
     41 H14        10.4240   -8.2820    2.2790 ha        1 ACD      0.116000
     42 H15         9.2880   -9.4410    4.1150 ha        1 ACD      0.117000
     43 H161        8.0060   -6.9410    4.9540 hc        1 ACD      0.053200
     44 H162        6.9280   -7.6960    3.7210 hc        1 ACD      0.053200
     45 H171        8.0050   -9.0930    6.2720 hc        1 ACD      0.035200
     46 H172        6.9250   -9.8470    5.0370 hc        1 ACD      0.035200
     47 H181        5.1940   -8.0630    5.4660 hc        1 ACD      0.048200
     48 H182        6.2740   -7.3150    6.7030 hc        1 ACD      0.048200
     49 H191        6.2530   -9.4650    8.0170 hc        1 ACD      0.030200
     50 H192        5.1680  -10.2080    6.7800 hc        1 ACD      0.030200
     51 H201        3.8610   -9.3670    8.7310 hc        1 ACD      0.037367
     52 H202        4.5200   -7.6980    8.4800 hc        1 ACD      0.037367
     53 H203        3.4340   -8.4350    7.2360 hc        1 ACD      0.037367
@<TRIPOS>BOND
     1    1    2 1   
     2    1   21 1   
     3    1   22 1   
     4    2    3 1   
     5    2   23 1   
     6    2   24 1   
     7    3    4 1   
     8    3   25 1   
     9    3   26 1   
    10    4    5 1   
    11    4   27 1   
    12    4   28 1   
    13    5    6 2   
    14    5   29 1   
    15    6    7 1   
    16    6   30 1   
    17    7    8 1   
    18    7   31 1   
    19    7   32 1   
    20    8    9 2   
    21    8   33 1   
    22    9   10 1   
    23    9   34 1   
    24   10   11 1   
    25   10   35 1   
    26   10   36 1   
    27   11   12 2   
    28   11   37 1   
    29   12   13 1   
    30   12   38 1   
    31   13   14 1   
    32   13   39 1   
    33   13   40 1   
    34   14   15 2   
    35   14   41 1   
    36   15   16 1   
    37   15   42 1   
    38   16   17 1   
    39   16   43 1   
    40   16   44 1   
    41   17   18 1   
    42   17   45 1   
    43   17   46 1   
    44   18   19 1   
    45   18   47 1   
    46   18   48 1   
    47   19   20 1   
    48   19   49 1   
    49   19   50 1   
    50   20   51 1   
    51   20   52 1   
    52   20   53 1   
@<TRIPOS>SUBSTRUCTURE
     1 ACD         1 TEMP              0 ****  ****    0 ROOT
