@<TRIPOS>MOLECULE
ACE
    7     6     1     0     0
SMALL
bcc


@<TRIPOS>ATOM
      1 C           0.0340   -0.0170    0.0210 c         1 ACE      0.561900
      2 O           1.1970    0.3770   -0.0710 o         1 ACE     -0.526100
      3 CH3        -0.7450    0.0090    1.2910 c3        1 ACE     -0.221100
      4 H          -0.5110   -0.4230   -0.8620 h4        1 ACE     -0.009800
      5 H1         -1.0630   -1.0300    1.5560 hc        1 ACE      0.065033
      6 H2         -0.1410    0.4270    2.1320 hc        1 ACE      0.065033
      7 H3         -1.6600    0.6360    1.1560 hc        1 ACE      0.065033
@<TRIPOS>BOND
     1    1    2 2   
     2    1    3 1   
     3    1    4 1   
     4    3    5 1   
     5    3    6 1   
     6    3    7 1   
@<TRIPOS>SUBSTRUCTURE
     1 ACE         1 TEMP              0 ****  ****    0 ROOT
