@<TRIPOS>MOLECULE
molecule
    7     6     1     0     0
SMALL
bcc


@<TRIPOS>ATOM
      1 C            0.0000     0.0000     0.0000 c          1 ACE       0.565900
      2 O            1.2070     0.0000     0.0000 o          1 ACE      -0.524100
      3 CH3         -0.7530     0.0000     1.3060 c3         1 ACE      -0.216100
      4 H           -0.5420    -0.0210    -0.9380 h4         1 ACE      -0.007800
      5 H1          -0.5130    -0.8990     1.8610 hc         1 ACE       0.060367
      6 H2          -0.4700     0.8700     1.8860 hc         1 ACE       0.060367
      7 H3          -1.8180     0.0290     1.1080 hc         1 ACE       0.060367
@<TRIPOS>BOND
     1     1     2 2
     2     1     3 1
     3     1     4 1
     4     3     5 1
     5     3     6 1
     6     3     7 1
@<TRIPOS>SUBSTRUCTURE
     1 ACE         1 TEMP              0 ****  ****    0 ROOT
