@<TRIPOS>MOLECULE
ACF
   50    52     1     0     0
SMALL
bcc


@<TRIPOS>ATOM
      1 C1           0.0000     0.0000     0.0000 c          1 ACF       0.613100
      2 C2           1.5690     0.0000     0.0000 c3         1 ACF       0.070500
      3 C4           2.2370     0.0000     1.3880 c3         1 ACF      -0.027400
      4 C5           3.6100     0.5850     1.1160 c3         1 ACF      -0.031400
      5 C6           3.3930     1.5510    -0.0570 c3         1 ACF       0.115500
      6 C9           3.3390     3.0230     0.3490 c3         1 ACF       0.222400
      7 O3          -0.5820     0.9390    -0.5150 o          1 ACF      -0.559100
      8 N7           2.1310     1.1690    -0.6850 n7         1 ACF      -0.525200
      9 N8          -0.6830    -1.0930     0.5810 n          1 ACF      -0.265800
     10 C10          2.0070     4.4650     1.7740 ca         1 ACF       0.103100
     11 O11          2.2640     3.1910     1.2470 os         1 ACF      -0.323900
     12 C12          0.9090     4.5820     2.6700 ca         1 ACF      -0.040600
     13 C13          0.5640     5.8240     3.2560 ca         1 ACF      -0.117000
     14 C14          1.3220     6.9770     2.9470 ca         1 ACF      -0.083000
     15 C15          2.4280     6.8980     2.0560 ca         1 ACF      -0.057600
     16 C16          2.7570     5.6430     1.4790 ca         1 ACF      -0.134000
     17 C17         -2.1720    -1.2020     0.6110 c3         1 ACF       0.063700
     18 C18         -2.3910    -2.5740     1.2940 c3         1 ACF      -0.056400
     19 C19         -1.1270    -3.3390     1.0060 c3         1 ACF      -0.036400
     20 C20         -0.0760    -2.2660     1.1980 c3         1 ACF       0.071000
     21 C21         -2.9460    -0.2160     1.4950 c3         1 ACF      -0.140200
     22 N22         -2.3510     0.3740     2.5310 nz         1 ACF       0.168400
     23 C24          3.2310     8.1030     1.7250 c          1 ACF       0.999200
     24 Cl23        -0.0460     3.1820     3.0730 cl         1 ACF      -0.194400
     25 O25          2.9310     9.1790     2.2280 o          1 ACF      -0.864800
     26 O26          4.1820     7.9910     0.9540 o          1 ACF      -0.864800
     27 H2           1.9030    -0.8850    -0.5270 h1         1 ACF       0.010700
     28 H41          2.3230    -1.0110     1.7680 hc         1 ACF       0.023700
     29 H42          1.6850     0.6290     2.0750 hc         1 ACF       0.023700
     30 H51          3.9690     1.1240     1.9850 hc         1 ACF       0.031700
     31 H52          4.3050    -0.1980     0.8360 hc         1 ACF       0.031700
     32 H6           4.1930     1.4110    -0.7740 h1         1 ACF       0.024700
     33 H91          4.2670     3.3030     0.8340 h1         1 ACF       0.015200
     34 H92          3.1840     3.6390    -0.5280 h1         1 ACF       0.015200
     35 HN7          2.2900     0.9460    -1.6480 hn         1 ACF       0.253800
     36 H13         -0.2770     5.8910     3.9360 ha         1 ACF       0.098000
     37 H14          1.0590     7.9280     3.3940 ha         1 ACF       0.133000
     38 H16          3.5990     5.5780     0.7990 ha         1 ACF       0.138000
     39 H17         -2.5720    -1.2150    -0.3950 h1         1 ACF       0.078700
     40 H181        -3.2450    -3.0790     0.8600 hc         1 ACF       0.026700
     41 H182        -2.5200    -2.4480     2.3620 hc         1 ACF       0.026700
     42 H191        -1.1230    -3.7070    -0.0130 hc         1 ACF       0.044200
     43 H192        -0.9920    -4.1440     1.7180 hc         1 ACF       0.044200
     44 H201         0.8400    -2.5340     0.6860 h1         1 ACF       0.027700
     45 H202         0.1030    -2.0920     2.2520 h1         1 ACF       0.027700
     46 H211        -3.3130     0.5710     0.8480 hx         1 ACF       0.087200
     47 H212        -3.8080    -0.7460     1.8830 hx         1 ACF       0.087200
     48 H221        -1.7360     1.0900     2.1990 hn         1 ACF       0.215467
     49 H222        -1.8260    -0.3050     3.0460 hn         1 ACF       0.215467
     50 H223        -3.0450     0.7810     3.1270 hn         1 ACF       0.215467
@<TRIPOS>BOND
     1     1     2 1   
     2     1     7 2   
     3     1     9 1   
     4     2     3 1   
     5     2     8 1   
     6     2    27 1   
     7     3     4 1   
     8     3    28 1   
     9     3    29 1   
    10     4     5 1   
    11     4    30 1   
    12     4    31 1   
    13     5     6 1   
    14     5     8 1   
    15     5    32 1   
    16     6    11 1   
    17     6    33 1   
    18     6    34 1   
    19     8    35 1   
    20     9    17 1   
    21     9    20 1   
    22    10    11 1   
    23    10    12 ar  
    24    10    16 ar  
    25    12    13 ar  
    26    12    24 1   
    27    13    14 ar  
    28    13    36 1   
    29    14    15 ar  
    30    14    37 1   
    31    15    16 ar  
    32    15    23 1   
    33    16    38 1   
    34    17    18 1   
    35    17    21 1   
    36    17    39 1   
    37    18    19 1   
    38    18    40 1   
    39    18    41 1   
    40    19    20 1   
    41    19    42 1   
    42    19    43 1   
    43    20    44 1   
    44    20    45 1   
    45    21    22 1   
    46    21    46 1   
    47    21    47 1   
    48    22    48 1   
    49    22    49 1   
    50    22    50 1   
    51    23    25 1   
    52    23    26 1   
@<TRIPOS>SUBSTRUCTURE
     1 ACF         1 TEMP              0 ****  ****    0 ROOT
