@<TRIPOS>MOLECULE
ACH
   26    25     1     0     0
SMALL
bcc


@<TRIPOS>ATOM
      1 N1           0.0000     0.0000     0.0000 n4         1 ACH       0.050200
      2 C2           1.4690     0.0000     0.0000 c3         1 ACH      -0.014200
      3 C3           1.9800     0.0000     1.4420 c3         1 ACH       0.209400
      4 O4           1.6270    -1.2550     2.0800 os         1 ACH      -0.464900
      5 C5           1.9750    -1.4800     3.3580 c          1 ACH       0.690100
      6 O7           2.5810    -0.6380     3.9750 o          1 ACH      -0.538000
      7 C6           1.6090    -2.7830     4.0200 c3         1 ACH      -0.025100
      8 C8          -0.4890     1.1270     0.8060 c3         1 ACH       0.012767
      9 C9          -0.4900     0.1340    -1.3780 c3         1 ACH       0.012767
     10 C10         -0.4900    -1.2600     0.5750 c3         1 ACH       0.012767
     11 H21          1.8300    -0.8840    -0.5110 hx         1 ACH       0.086200
     12 H22          1.8300     0.8840    -0.5110 hx         1 ACH       0.086200
     13 H31          1.5270     0.8210     1.9850 h1         1 ACH       0.046200
     14 H32          3.0570     0.1160     1.4440 h1         1 ACH       0.046200
     15 H61          0.5790    -2.7420     4.3530 hc         1 ACH       0.038700
     16 H62          2.2570    -2.9500     4.8720 hc         1 ACH       0.038700
     17 H63          1.7270    -3.5940     3.3120 hc         1 ACH       0.038700
     18 H81          0.1060     2.0070     0.5950 hx         1 ACH       0.074811
     19 H82         -0.4100     0.8800     1.8580 hx         1 ACH       0.074811
     20 H83         -1.5250     1.3250     0.5580 hx         1 ACH       0.074811
     21 H91         -0.1380     1.0690    -1.7970 hx         1 ACH       0.074811
     22 H92         -1.5730     0.1230    -1.3790 hx         1 ACH       0.074811
     23 H93         -0.1200    -0.6910    -1.9750 hx         1 ACH       0.074811
     24 H101        -1.4770    -1.4760     0.1830 hx         1 ACH       0.074811
     25 H102        -0.5410    -1.1690     1.6530 hx         1 ACH       0.074811
     26 H103         0.1860    -2.0640     0.3120 hx         1 ACH       0.074811
@<TRIPOS>BOND
     1     1     2 1   
     2     1     8 1   
     3     1     9 1   
     4     1    10 1   
     5     2     3 1   
     6     2    11 1   
     7     2    12 1   
     8     3     4 1   
     9     3    13 1   
    10     3    14 1   
    11     4     5 1   
    12     5     6 2   
    13     5     7 1   
    14     7    15 1   
    15     7    16 1   
    16     7    17 1   
    17     8    18 1   
    18     8    19 1   
    19     8    20 1   
    20     9    21 1   
    21     9    22 1   
    22     9    23 1   
    23    10    24 1   
    24    10    25 1   
    25    10    26 1   
@<TRIPOS>SUBSTRUCTURE
     1 ACH         1 TEMP              0 ****  ****    0 ROOT
