@<TRIPOS>MOLECULE
molecule
   26    26     1     0     0
SMALL
bcc


@<TRIPOS>ATOM
      1 C1           0.0000     0.0000     0.0000 c3         1 ACI       0.146700
      2 C2           1.5300     0.0000     0.0000 c3         1 ACI       0.113100
      3 C3           2.0150     0.0000     1.4550 c3         1 ACI       0.128100
      4 C4           1.6400     1.3400     2.0900 c3         1 ACI       0.153300
      5 C5           0.1950     1.6500     1.8280 c2         1 ACI      -0.031400
      6 C6          -0.4670     2.7020     2.6790 c3         1 ACI       0.168600
      7 C7          -0.5170     1.0700     0.9160 c2         1 ACI      -0.261200
      8 N1          -0.4870    -1.3090     0.4570 nz         1 ACI      -0.804600
      9 O2           2.0100    -1.1700    -0.6660 oh         1 ACI      -0.616800
     10 O3           3.4340    -0.1670     1.4880 oh         1 ACI      -0.575800
     11 O4           1.8620     1.2750     3.5000 oh         1 ACI      -0.590800
     12 O6          -1.8320     2.8500     2.2780 oh         1 ACI      -0.623800
     13 H1          -0.3560     0.1890    -1.0050 hx         1 ACI       0.121700
     14 H2           1.8930     0.8880    -0.5040 h1         1 ACI       0.101700
     15 H3           1.5360    -0.8060     1.9980 h1         1 ACI       0.035700
     16 H4           2.2550     2.1220     1.6620 h1         1 ACI       0.086700
     17 H61          0.0500     3.6460     2.5550 h1         1 ACI       0.065700
     18 H62         -0.4270     2.4030     3.7200 h1         1 ACI       0.065700
     19 H7          -1.5510     1.3750     0.8080 ha         1 ACI       0.190000
     20 HN11        -0.0400    -2.0330    -0.0690 hn         1 ACI       0.458133
     21 HN12        -0.2760    -1.4230     1.4280 hn         1 ACI       0.458133
     22 HO2          2.5180    -0.9170    -1.4190 ho         1 ACI       0.451000
     23 HO3          3.6570    -0.8520     2.0960 ho         1 ACI       0.433000
     24 HO4          2.6060     1.8080     3.7260 ho         1 ACI       0.434000
     25 HO6         -2.2450     3.5110     2.8080 ho         1 ACI       0.434000
     26 H13         -1.4770    -1.3620     0.3220 hn         1 ACI       0.458133
@<TRIPOS>BOND
     1     1     2 1
     2     1     7 1
     3     1     8 1
     4     1    13 1
     5     2     3 1
     6     2     9 1
     7     2    14 1
     8     3     4 1
     9     3    10 1
    10     3    15 1
    11     4     5 1
    12     4    11 1
    13     4    16 1
    14     5     6 1
    15     5     7 2
    16     6    12 1
    17     6    17 1
    18     6    18 1
    19     7    19 1
    20     8    20 1
    21     8    21 1
    22     9    22 1
    23    10    23 1
    24    11    24 1
    25    12    25 1
    26    26     8 1
@<TRIPOS>SUBSTRUCTURE
     1 ACI         1 TEMP              0 ****  ****    0 ROOT
