@<TRIPOS>MOLECULE
molecule
   30    31     1     0     0
SMALL
bcc


@<TRIPOS>ATOM
      1 O3           0.0000     0.0000     0.0000 o          1 ACJ      -0.795800
      2 C11          1.2140     0.0000     0.0000 c          1 ACJ       0.874200
      3 O2           1.8880     0.0000     1.1670 o          1 ACJ      -0.795800
      4 C9           2.9060     0.9880    -1.5370 ca         1 ACJ      -0.115000
      5 C14          1.7040    -0.9860    -2.2340 ca         1 ACJ      -0.144200
      6 C8           3.5940     0.9830    -2.7380 ca         1 ACJ       0.068100
      7 N1           0.6930    -2.0350    -1.9670 no         1 ACJ       0.290200
      8 C13          2.3900    -0.9790    -3.4300 ca         1 ACJ      -0.082000
      9 O5           0.3810    -2.8170    -2.8460 o          1 ACJ      -0.196000
     10 C12          3.3350    -0.0010    -3.6840 ca         1 ACJ      -0.184000
     11 O1           4.5240     1.9410    -2.9930 os         1 ACJ      -0.198200
     12 C7           3.9150     2.8850    -3.7580 ca         1 ACJ       0.161100
     13 O4           0.1730    -2.1150    -0.8680 o          1 ACJ      -0.196000
     14 C6           2.5560     2.7980    -4.0190 ca         1 ACJ      -0.195000
     15 C10          1.9530     0.0020    -1.2800 ca         1 ACJ      -0.018600
     16 C4           4.6530     3.9420    -4.2760 ca         1 ACJ      -0.015600
     17 C5           1.9390     3.7590    -4.7960 ca         1 ACJ      -0.043000
     18 C2           2.6760     4.8080    -5.3160 ca         1 ACJ      -0.219300
     19 Cl1          6.3540     4.0540    -3.9530 cl         1 ACJ      -0.090400
     20 C3           4.0310     4.8980    -5.0590 ca         1 ACJ      -0.053000
     21 C1           2.0000     5.8550    -6.1640 c3         1 ACJ       0.678200
     22 F1           1.5390     6.8910    -5.3460 f          1 ACJ      -0.227300
     23 F2           2.9140     6.3640    -7.0910 f          1 ACJ      -0.227300
     24 F3           0.9200     5.2790    -6.8420 f          1 ACJ      -0.227300
     25 H9           3.1070     1.7550    -0.7980 ha         1 ACJ       0.174000
     26 H13          2.1920    -1.7440    -4.1710 ha         1 ACJ       0.153000
     27 H12          3.8730    -0.0010    -4.6240 ha         1 ACJ       0.138000
     28 H6           1.9780     1.9770    -3.6120 ha         1 ACJ       0.182000
     29 H5           0.8770     3.6910    -4.9990 ha         1 ACJ       0.153000
     30 H3           4.6060     5.7210    -5.4650 ha         1 ACJ       0.154000
@<TRIPOS>BOND
     1     1     2 1
     2     2     3 1
     3     2    15 1
     4     4     6 ar
     5     4    15 ar
     6     4    25 1
     7     5     7 1
     8     5     8 ar
     9     5    15 ar
    10     6    10 ar
    11     6    11 1
    12     7     9 1
    13     7    13 1
    14     8    10 ar
    15     8    26 1
    16    10    27 1
    17    11    12 1
    18    12    14 ar
    19    12    16 ar
    20    14    17 ar
    21    14    28 1
    22    16    19 1
    23    16    20 ar
    24    17    18 ar
    25    17    29 1
    26    18    20 ar
    27    18    21 1
    28    20    30 1
    29    21    22 1
    30    21    23 1
    31    21    24 1
@<TRIPOS>SUBSTRUCTURE
     1 ACJ         1 TEMP              0 ****  ****    0 ROOT
