@<TRIPOS>MOLECULE
molecule
   34    37     1     0     0
SMALL
bcc


@<TRIPOS>ATOM
      1 O3P          0.0000     0.0000     0.0000 oh         1 ACK      -0.720400
      2 P            1.6100     0.0000     0.0000 p5         1 ACK       1.461500
      3 O1P          2.1390    -1.1440    -0.7740 o          1 ACK      -0.742300
      4 O2'          2.1970     0.0000     1.5240 os         1 ACK      -0.437200
      5 O3'          2.1970     1.4160    -0.5640 os         1 ACK      -0.455200
      6 C3'          2.1760     2.2610     0.6010 c3         1 ACK       0.046100
      7 C4'          3.5080     3.0400     0.6730 c3         1 ACK       0.147100
      8 O4'          3.8430     3.0670     2.0780 os         1 ACK      -0.395600
      9 C5'          3.3230     4.4630     0.1430 c3         1 ACK       0.150400
     10 O5'          4.5740     5.1520     0.1800 oh         1 ACK      -0.594800
     11 C1'          3.5090     1.7520     2.5740 c3         1 ACK       0.267800
     12 N9           3.3320     1.7860     4.0280 na         1 ACK      -0.261000
     13 C8           3.0050     2.8770     4.7760 cc         1 ACK       0.440700
     14 N7           2.9300     2.5480     6.0330 nd         1 ACK      -0.572100
     15 C5           3.2020     1.2290     6.1710 ca         1 ACK      -0.157200
     16 C6           3.2690     0.3420     7.2590 ca         1 ACK       0.777200
     17 N6           3.0210     0.7820     8.5470 nv         1 ACK      -1.072500
     18 N1           3.5740    -0.9300     7.0220 nb         1 ACK      -0.770000
     19 C2           3.8110    -1.3590     5.7960 ca         1 ACK       0.707900
     20 N3           3.7610    -0.5650     4.7470 nb         1 ACK      -0.743000
     21 C4           3.4580     0.7220     4.8860 ca         1 ACK       0.450800
     22 C2'          2.1760     1.3960     1.8780 c3         1 ACK       0.035100
     23 H1          -0.3140    -0.7350    -0.5000 ho         1 ACK       0.484000
     24 H2           1.3280     2.9350     0.5830 h1         1 ACK       0.096700
     25 H3           4.2770     2.5210     0.1140 h1         1 ACK       0.098700
     26 H4           2.6030     4.9880     0.7600 h1         1 ACK       0.037700
     27 H5           2.9620     4.4240    -0.8780 h1         1 ACK       0.037700
     28 H6           4.4760     6.0040    -0.2110 ho         1 ACK       0.411000
     29 H7           4.2770     1.0410     2.2980 h2         1 ACK       0.118700
     30 H8           2.8340     3.8720     4.3820 h5         1 ACK       0.089800
     31 H9           3.7750     1.1110     9.1170 hn         1 ACK       0.445300
     32 H10          2.0930     0.7430     8.9190 hn         1 ACK       0.445300
     33 H11          4.0560    -2.4030     5.6470 h5         1 ACK       0.066100
     34 H12          1.3290     1.6300     2.5110 h1         1 ACK       0.105700
@<TRIPOS>BOND
     1     9     7 1
     2     9    10 1
     3     7     8 1
     4     7     6 1
     5     8    11 1
     6     6     5 1
     7     6    22 1
     8     5     2 1
     9    11    12 1
    10    11    22 1
    11    13    12 1
    12    13    14 2
    13    12    21 1
    14    22     4 1
    15     3     2 2
    16     2     4 1
    17     2     1 1
    18    14    15 1
    19    21    20 ar
    20    21    15 ar
    21    20    19 ar
    22    15    16 ar
    23    19    18 ar
    24    16    18 ar
    25    16    17 1
    26     1    23 1
    27     6    24 1
    28     7    25 1
    29     9    26 1
    30     9    27 1
    31    10    28 1
    32    11    29 1
    33    13    30 1
    34    17    31 1
    35    17    32 1
    36    19    33 1
    37    22    34 1
@<TRIPOS>SUBSTRUCTURE
     1 ACK         1 TEMP              0 ****  ****    0 ROOT
