@<TRIPOS>MOLECULE
ACK
   34    37     1     0     0
SMALL
bcc


@<TRIPOS>ATOM
      1 O3P          0.0000     0.0000     0.0000 oh         1 ACK      -0.650400
      2 P            1.6100     0.0000     0.0000 p5         1 ACK       1.190500
      3 O1P          2.1390    -1.1440    -0.7740 o          1 ACK      -0.609300
      4 O2'          2.1970     0.0000     1.5240 os         1 ACK      -0.371200
      5 O3'          2.1970     1.4160    -0.5640 os         1 ACK      -0.388200
      6 C3'          2.1760     2.2610     0.6010 c3         1 ACK       0.118100
      7 C4'          3.5080     3.0400     0.6730 c3         1 ACK       0.166100
      8 O4'          3.8430     3.0670     2.0780 os         1 ACK      -0.388600
      9 C5'          3.3230     4.4630     0.1430 c3         1 ACK       0.228400
     10 O5'          4.5740     5.1520     0.1800 oh         1 ACK      -0.581800
     11 C1'          3.5090     1.7520     2.5740 c3         1 ACK       0.151800
     12 N9           3.3320     1.7860     4.0280 na         1 ACK       0.196000
     13 C8           3.0050     2.8770     4.7760 cc         1 ACK       0.269700
     14 N7           2.9300     2.5480     6.0330 nd         1 ACK      -0.490100
     15 C5           3.2020     1.2290     6.1710 ca         1 ACK      -0.183200
     16 C6           3.2690     0.3420     7.2590 ca         1 ACK       0.598200
     17 N6           3.0210     0.7820     8.5470 nv         1 ACK      -0.644500
     18 N1           3.5740    -0.9300     7.0220 nb         1 ACK      -0.658000
     19 C2           3.8110    -1.3590     5.7960 ca         1 ACK       0.638900
     20 N3           3.7610    -0.5650     4.7470 nb         1 ACK      -0.604000
     21 C4           3.4580     0.7220     4.8860 ca         1 ACK       0.234800
     22 C2'          2.1760     1.3960     1.8780 c3         1 ACK       0.102100
     23 H1          -0.3140    -0.7350    -0.5000 ho         1 ACK       0.463000
     24 H2           1.3280     2.9350     0.5830 h1         1 ACK       0.044700
     25 H3           4.2770     2.5210     0.1140 h1         1 ACK       0.054700
     26 H4           2.6030     4.9880     0.7600 h1         1 ACK      -0.003800
     27 H5           2.9620     4.4240    -0.8780 h1         1 ACK      -0.003800
     28 H6           4.4760     6.0040    -0.2110 ho         1 ACK       0.395000
     29 H7           4.2770     1.0410     2.2980 h2         1 ACK       0.072700
     30 H8           2.8340     3.8720     4.3820 h5         1 ACK       0.039800
     31 H9           3.7750     1.1110     9.1170 hn         1 ACK       0.281300
     32 H10          2.0930     0.7430     8.9190 hn         1 ACK       0.281300
     33 H11          4.0560    -2.4030     5.6470 h5         1 ACK       0.000100
     34 H12          1.3290     1.6300     2.5110 h1         1 ACK       0.049700
@<TRIPOS>BOND
     1     1     2 1   
     2     1    23 1   
     3     2     3 2   
     4     2     4 1   
     5     2     5 1   
     6     4    22 1   
     7     5     6 1   
     8     6     7 1   
     9     6    22 1   
    10     6    24 1   
    11     7     8 1   
    12     7     9 1   
    13     7    25 1   
    14     8    11 1   
    15     9    10 1   
    16     9    26 1   
    17     9    27 1   
    18    10    28 1   
    19    11    12 1   
    20    11    22 1   
    21    11    29 1   
    22    12    13 1   
    23    12    21 1   
    24    13    14 2   
    25    13    30 1   
    26    14    15 1   
    27    15    16 ar  
    28    15    21 ar  
    29    16    17 1   
    30    16    18 ar  
    31    17    31 1   
    32    17    32 1   
    33    18    19 ar  
    34    19    20 ar  
    35    19    33 1   
    36    20    21 ar  
    37    22    34 1   
@<TRIPOS>SUBSTRUCTURE
     1 ACK         1 TEMP              0 ****  ****    0 ROOT
