@<TRIPOS>MOLECULE
molecule
   10     9     1     0     0
SMALL
bcc


@<TRIPOS>ATOM
      1 C1           0.0000     0.0000     0.0000 c          1 ACM       0.478100
      2 O            1.2130     0.0000     0.0000 o          1 ACM      -0.382100
      3 N           -0.6740     0.0000     1.1670 nz         1 ACM      -0.686400
      4 C2          -0.7520     0.0000    -1.3040 c3         1 ACM      -0.174100
      5 HN1         -1.2490    -0.8170     1.2200 hn         1 ACM       0.480133
      6 HN2         -0.0230     0.0000     1.9280 hn         1 ACM       0.480133
      7 H21         -1.3750    -0.8840    -1.3620 hc         1 ACM       0.108367
      8 H22         -1.3740     0.8850    -1.3630 hc         1 ACM       0.108367
      9 H23         -0.0470    -0.0000    -2.1270 hc         1 ACM       0.108367
     10 HN3         -1.2490     0.8170     1.2200 hn         1 ACM       0.480133
@<TRIPOS>BOND
     1     1     2 2
     2     1     3 1
     3     1     4 1
     4     3     5 1
     5     3     6 1
     6     4     7 1
     7     4     8 1
     8     4     9 1
     9    10     3 1
@<TRIPOS>SUBSTRUCTURE
     1 ACM         1 TEMP              0 ****  ****    0 ROOT
