@<TRIPOS>MOLECULE
molecule
   10     9     1     0     0
SMALL
bcc


@<TRIPOS>ATOM
      1 C            0.0000     0.0000     0.0000 c          1 ACN       0.559100
      2 O            1.2080     0.0000     0.0000 o          1 ACN      -0.526100
      3 C1          -0.7530     0.0000     1.3050 c3         1 ACN      -0.197100
      4 C2          -0.7530     0.0060    -1.3050 c3         1 ACN      -0.197100
      5 H11         -1.3700     0.8880     1.3660 hc         1 ACN       0.060367
      6 H12         -1.3810    -0.8810     1.3590 hc         1 ACN       0.060367
      7 H13         -0.0490    -0.0070     2.1280 hc         1 ACN       0.060367
      8 H21         -0.0490     0.0030    -2.1280 hc         1 ACN       0.060367
      9 H22         -1.3810    -0.8740    -1.3640 hc         1 ACN       0.060367
     10 H23         -1.3700     0.8950    -1.3610 hc         1 ACN       0.060367
@<TRIPOS>BOND
     1     1     2 2
     2     1     3 1
     3     1     4 1
     4     3     5 1
     5     3     6 1
     6     3     7 1
     7     4     8 1
     8     4     9 1
     9     4    10 1
@<TRIPOS>SUBSTRUCTURE
     1 ACN         1 TEMP              0 ****  ****    0 ROOT
