@<TRIPOS>MOLECULE
ACN
   10     9     1     0     0
SMALL
bcc


@<TRIPOS>ATOM
      1 C           0.0510   -0.0060   -0.0000 c         1 ACN      0.563100
      2 O           1.2870   -0.0220   -0.0010 o         1 ACN     -0.531100
      3 C1         -0.7460    0.0170    1.2640 c3        1 ACN     -0.204100
      4 C2         -0.7480   -0.0070   -1.2640 c3        1 ACN     -0.204100
      5 H11        -0.0790    0.1250    2.1540 hc        1 ACN      0.062700
      6 H12        -1.3220   -0.9360    1.3590 hc        1 ACN      0.062700
      7 H13        -1.4680    0.8690    1.2440 hc        1 ACN      0.062700
      8 H21        -1.4920   -0.8390   -1.2430 hc        1 ACN      0.062700
      9 H22        -1.2980    0.9610   -1.3580 hc        1 ACN      0.062700
     10 H23        -0.0850   -0.1330   -2.1540 hc        1 ACN      0.062700
@<TRIPOS>BOND
     1    1    2 2   
     2    1    3 1   
     3    1    4 1   
     4    3    5 1   
     5    3    6 1   
     6    3    7 1   
     7    4    8 1   
     8    4    9 1   
     9    4   10 1   
@<TRIPOS>SUBSTRUCTURE
     1 ACN         1 TEMP              0 ****  ****    0 ROOT
