@<TRIPOS>MOLECULE
ACS
   45    45     1     0     0
SMALL
bcc


@<TRIPOS>ATOM
      1 N1           0.0000     0.0000     0.0000 nz         1 ACS       0.081400
      2 C2           1.4690     0.0000     0.0000 c3         1 ACS      -0.199500
      3 C3           1.9710     0.0000     1.4220 c          1 ACS       0.960600
      4 O4           3.2240    -0.3970     1.6910 o          1 ACS      -0.827300
      5 O5           1.2440     0.3580     2.3190 o          1 ACS      -0.827300
      6 C6           1.9790     1.2490    -0.7200 c3         1 ACS      -0.027400
      7 C7           1.5760     1.1890    -2.1950 c3         1 ACS      -0.031400
      8 C10          2.0850     2.4380    -2.9160 c3         1 ACS      -0.091400
      9 C13          1.6870     2.3770    -4.3680 c          1 ACS       0.572100
     10 N16          2.0310     3.3780    -5.2030 ns         1 ACS      -0.141900
     11 O17          1.0580     1.4280    -4.7850 o          1 ACS      -0.682100
     12 C18          1.6450     3.3190    -6.6150 cy         1 ACS      -0.112300
     13 C19          2.7900     2.9670    -7.5320 c          1 ACS       0.661500
     14 O20          3.4990     1.9970    -7.6990 o          1 ACS      -0.599500
     15 N21          2.6870     4.1930    -8.0890 nj         1 ACS      -0.116800
     16 C22          3.4520     4.8250    -9.1660 c3         1 ACS      -0.044300
     17 C23          4.9060     4.8950    -8.7760 c          1 ACS       0.970600
     18 C24          3.3080     4.0000   -10.4460 c3         1 ACS       0.133900
     19 S25          1.5800     4.0380   -10.9980 s4         1 ACS      -0.119400
     20 O28          1.2200     5.3710   -11.3340 o          1 ACS      -0.483200
     21 C29          1.6090     3.0230   -12.5010 c3         1 ACS       0.123200
     22 O35          5.8010     5.4390    -9.6150 o          1 ACS      -0.868800
     23 O36          5.2660     4.4610    -7.7060 o          1 ACS      -0.868800
     24 C42          1.5710     4.6970    -7.2790 cy         1 ACS       0.141800
     25 S44          2.0120     6.0740    -6.1840 sh         1 ACS      -0.384900
     26 H12         -0.3340     0.9210     0.2070 hn         1 ACS       0.210800
     27 H11         -0.3340    -0.2810    -0.9010 hn         1 ACS       0.210800
     28 H2           1.8300    -0.8840    -0.5110 hx         1 ACS       0.089700
     29 H62          1.5470     2.1310    -0.2630 hc         1 ACS       0.052200
     30 H61          3.0590     1.2950    -0.6430 hc         1 ACS       0.052200
     31 H72          2.0080     0.3070    -2.6510 hc         1 ACS       0.017200
     32 H71          0.4960     1.1420    -2.2720 hc         1 ACS       0.017200
     33 H102         1.6520     3.3200    -2.4590 hc         1 ACS       0.036700
     34 H101         3.1650     2.4840    -2.8390 hc         1 ACS       0.036700
     35 H16          2.5540     4.1590    -4.8590 hn         1 ACS       0.214500
     36 H18          0.7620     2.7190    -6.8040 h1         1 ACS       0.073700
     37 H22          3.0760     5.8260    -9.3380 h1         1 ACS       0.055700
     38 H242         3.6020     2.9750   -10.2510 h1         1 ACS       0.076700
     39 H241         3.9430     4.4170   -11.2190 h1         1 ACS       0.076700
     40 H293         0.6220     3.0120   -12.9480 h1         1 ACS       0.040033
     41 H292         2.3200     3.4390   -13.2050 h1         1 ACS       0.040033
     42 H291         1.9010     2.0110   -12.2480 h1         1 ACS       0.040033
     43 H42          0.6630     4.8440    -7.8530 h2         1 ACS       0.050700
     44 H44          1.1230     7.0510    -6.3200 hs         1 ACS       0.179800
     45 H13         -0.3340    -0.6430     0.6900 hn         1 ACS       0.210800
@<TRIPOS>BOND
     1     1     2 1   
     2     1    26 1   
     3     1    27 1   
     4     1    45 1   
     5     2     3 1   
     6     2     6 1   
     7     2    28 1   
     8     3     4 1   
     9     3     5 1   
    10     6     7 1   
    11     6    29 1   
    12     6    30 1   
    13     7     8 1   
    14     7    31 1   
    15     7    32 1   
    16     8     9 1   
    17     8    33 1   
    18     8    34 1   
    19     9    10 1   
    20     9    11 2   
    21    10    12 1   
    22    10    35 1   
    23    12    13 1   
    24    12    24 1   
    25    12    36 1   
    26    13    14 2   
    27    13    15 1   
    28    15    16 1   
    29    15    24 1   
    30    16    17 1   
    31    16    18 1   
    32    16    37 1   
    33    17    22 1   
    34    17    23 1   
    35    18    19 1   
    36    18    38 1   
    37    18    39 1   
    38    19    20 2   
    39    19    21 1   
    40    21    40 1   
    41    21    41 1   
    42    21    42 1   
    43    24    25 1   
    44    24    43 1   
    45    25    44 1   
@<TRIPOS>SUBSTRUCTURE
     1 ACS         1 TEMP              0 ****  ****    0 ROOT
