@<TRIPOS>MOLECULE
molecule
    7     6     1     0     0
SMALL
bcc


@<TRIPOS>ATOM
      1 C            0.0000     0.0000     0.0000 c          1 ACT       0.916600
      2 O            1.2200     0.0000     0.0000 o          1 ACT      -0.859800
      3 OXT         -0.6090     0.0000     1.0560 o          1 ACT      -0.859800
      4 CH3         -0.7540     0.0000    -1.3050 c3         1 ACT      -0.220100
      5 H1          -0.1690    -0.5110    -2.0600 hc         1 ACT       0.007700
      6 H2          -0.9340     1.0210    -1.6180 hc         1 ACT       0.007700
      7 H3          -1.7000    -0.5110    -1.1750 hc         1 ACT       0.007700
@<TRIPOS>BOND
     1     1     2 1
     2     1     3 1
     3     1     4 1
     4     4     5 1
     5     4     6 1
     6     4     7 1
@<TRIPOS>SUBSTRUCTURE
     1 ACT         1 TEMP              0 ****  ****    0 ROOT
