@<TRIPOS>MOLECULE
ACU
    7     6     1     0     0
SMALL
bcc


@<TRIPOS>ATOM
      1 CA          0.0170   -0.0080    0.0100 c3        1 ACU     -0.221100
      2 C           1.5060    0.0050    0.0260 c         1 ACU      0.561900
      3 O           2.1720    0.3860    0.9890 o         1 ACU     -0.526100
      4 HA         -0.3540    0.6370   -0.8240 hc        1 ACU      0.065033
      5 HA1        -0.4060    0.3680    0.9730 hc        1 ACU      0.065033
      6 HA2        -0.3460   -1.0520   -0.1610 hc        1 ACU      0.065033
      7 H           1.9950   -0.3580   -0.9070 h4        1 ACU     -0.009800
@<TRIPOS>BOND
     1    1    2 1   
     2    1    4 1   
     3    1    5 1   
     4    1    6 1   
     5    2    3 2   
     6    2    7 1   
@<TRIPOS>SUBSTRUCTURE
     1 ACU         1 TEMP              0 ****  ****    0 ROOT
