@<TRIPOS>MOLECULE
molecule
    7     6     1     0     0
SMALL
bcc


@<TRIPOS>ATOM
      1 CA           0.0000     0.0000     0.0000 c3         1 ACU      -0.215100
      2 C            1.5070     0.0000     0.0000 c          1 ACU       0.565900
      3 O            2.1110     0.0000     1.0460 o          1 ACU      -0.525100
      4 HA          -0.3610     0.0290    -1.0210 hc         1 ACU       0.060367
      5 HA1         -0.3610    -0.8990     0.4850 hc         1 ACU       0.060367
      6 HA2         -0.3610     0.8700     0.5360 hc         1 ACU       0.060367
      7 H            2.0490    -0.0210    -0.9380 h4         1 ACU      -0.007800
@<TRIPOS>BOND
     1     1     2 1
     2     1     4 1
     3     1     5 1
     4     1     6 1
     5     2     3 2
     6     2     7 1
@<TRIPOS>SUBSTRUCTURE
     1 ACU         1 TEMP              0 ****  ****    0 ROOT
