@<TRIPOS>MOLECULE
ACV
   48    47     1     0     0
SMALL
bcc


@<TRIPOS>ATOM
      1 C1           0.0000     0.0000     0.0000 c          1 ACV       0.956600
      2 C2           1.5060     0.0000     0.0000 c3         1 ACV      -0.199500
      3 C3           2.0170     0.0000     1.4410 c3         1 ACV      -0.028400
      4 C4           3.5470     0.0000     1.4410 c3         1 ACV      -0.034400
      5 C7           4.0580     0.0010     2.8830 c3         1 ACV      -0.089400
      6 C10          5.5650     0.0000     2.8830 c          1 ACV       0.566100
      7 N11          6.2390     0.0010     4.0500 ns         1 ACV      -0.146900
      8 C12          7.7040     0.0010     4.0490 c3         1 ACV      -0.045300
      9 C13          8.2060    -0.7080     5.2790 c          1 ACV       0.547100
     10 N14          1.9950     1.1980    -0.6940 nz         1 ACV       0.083400
     11 O15          6.1710     0.0000     1.8330 o          1 ACV      -0.649100
     12 C16          8.2140     1.4440     4.0480 c3         1 ACV       0.094700
     13 S17          7.6080     2.2990     2.5680 sh         1 ACV      -0.398900
     14 O18          7.4190    -1.1680     6.0780 o          1 ACV      -0.668100
     15 O19         -0.6720    -1.1630     0.0010 o          1 ACV      -0.826300
     16 O20         -0.6040     1.0460    -0.0000 o          1 ACV      -0.826300
     17 N29          9.5310    -0.8320     5.4920 ns         1 ACV      -0.099900
     18 C30         10.0200    -1.5210     6.6880 c3         1 ACV      -0.109300
     19 C31         10.1870    -2.9880     6.3890 c          1 ACV       0.975600
     20 C32         11.3680    -0.9290     7.1040 c3         1 ACV      -0.036700
     21 C33         11.8790    -1.6480     8.3530 c3         1 ACV      -0.010600
     22 C37         12.3750    -1.1060     5.9660 c3         1 ACV      -0.010600
     23 O42         10.4930    -3.3880     5.1450 o          1 ACV      -0.882300
     24 O43         10.0460    -3.8040     7.2690 o          1 ACV      -0.882300
     25 H2           1.8660    -0.8850    -0.5100 hx         1 ACV       0.090700
     26 H31          1.6560     0.8850     1.9520 hc         1 ACV       0.051200
     27 H32A         1.6560    -0.8840     1.9520 hc         1 ACV       0.051200
     28 H41          3.9080     0.8840     0.9300 hc         1 ACV       0.018700
     29 H42          3.9080    -0.8840     0.9310 hc         1 ACV       0.018700
     30 H71          3.6980     0.8850     3.3940 hc         1 ACV       0.034200
     31 H72          3.6970    -0.8840     3.3950 hc         1 ACV       0.034200
     32 HNB          5.7400     0.0310     4.9160 hn         1 ACV       0.192500
     33 H12          8.0640    -0.5100     3.1640 h1         1 ACV       0.091700
     34 HNE1         1.9800     1.9770    -0.0660 hn         1 ACV       0.211133
     35 HNE2         1.4070     1.3910    -1.4800 hn         1 ACV       0.211133
     36 H161         7.8530     1.9540     4.9320 h1         1 ACV       0.036200
     37 H162         9.2970     1.4430     4.0470 h1         1 ACV       0.036200
     38 HS7          8.2650     3.4430     2.4180 hs         1 ACV       0.158800
     39 HNT         10.1810    -0.4570     4.8300 hn         1 ACV       0.168500
     40 H30          9.3070    -1.3960     7.4930 h1         1 ACV       0.057700
     41 H32         11.2480     0.1260     7.3190 hc         1 ACV      -0.009300
     42 H331        11.0640    -1.7710     9.0570 hc         1 ACV       0.009200
     43 H332        12.2670    -2.6210     8.0760 hc         1 ACV       0.009200
     44 H333        12.6660    -1.0620     8.8110 hc         1 ACV       0.009200
     45 H371        13.3570    -0.7970     6.3020 hc         1 ACV       0.009200
     46 H372        12.0740    -0.4980     5.1210 hc         1 ACV       0.009200
     47 H373        12.4060    -2.1470     5.6700 hc         1 ACV       0.009200
     48 H143         2.9300     1.0390    -1.0140 hn         1 ACV       0.211133
@<TRIPOS>BOND
     1     1     2 1   
     2     1    15 1   
     3     1    16 1   
     4     2     3 1   
     5     2    10 1   
     6     2    25 1   
     7     3     4 1   
     8     3    26 1   
     9     3    27 1   
    10     4     5 1   
    11     4    28 1   
    12     4    29 1   
    13     5     6 1   
    14     5    30 1   
    15     5    31 1   
    16     6     7 1   
    17     6    11 2   
    18     7     8 1   
    19     7    32 1   
    20     8     9 1   
    21     8    12 1   
    22     8    33 1   
    23     9    14 2   
    24     9    17 1   
    25    10    34 1   
    26    10    35 1   
    27    10    48 1   
    28    12    13 1   
    29    12    36 1   
    30    12    37 1   
    31    13    38 1   
    32    17    18 1   
    33    17    39 1   
    34    18    19 1   
    35    18    20 1   
    36    18    40 1   
    37    19    23 1   
    38    19    24 1   
    39    20    21 1   
    40    20    22 1   
    41    20    41 1   
    42    21    42 1   
    43    21    43 1   
    44    21    44 1   
    45    22    45 1   
    46    22    46 1   
    47    22    47 1   
@<TRIPOS>SUBSTRUCTURE
     1 ACV         1 TEMP              0 ****  ****    0 ROOT
