@<TRIPOS>MOLECULE
ACW
   49    49     1     0     0
SMALL
bcc


@<TRIPOS>ATOM
      1 C1           0.0000     0.0000     0.0000 c          1 ACW       0.959600
      2 C2           1.5070     0.0000     0.0000 c3         1 ACW      -0.200500
      3 C3           2.0170     0.0000     1.4430 c3         1 ACW      -0.027400
      4 C4           3.5420    -0.1260     1.4440 c3         1 ACW      -0.033400
      5 C7           4.0520    -0.1240     2.8860 c3         1 ACW      -0.088400
      6 C10          5.5540    -0.2490     2.8880 c          1 ACW       0.560100
      7 N11          6.2270    -0.2700     4.0550 ns         1 ACW      -0.156900
      8 C12          7.6880    -0.3910     4.0570 c3         1 ACW      -0.040300
      9 C13          8.1400    -0.9930     5.3620 c          1 ACW       0.539100
     10 N14          1.9970     1.1980    -0.6940 nz         1 ACW       0.082400
     11 O15          6.1570    -0.3310     1.8380 o          1 ACW      -0.640100
     12 C16          8.3140     0.9950     3.8880 c3         1 ACW       0.093700
     13 S17          7.7690     1.7180     2.3170 sh         1 ACW      -0.393900
     14 O18          7.3240    -1.2900     6.2080 o          1 ACW      -0.684100
     15 O19         -0.6710    -1.1450     0.2030 o          1 ACW      -0.827800
     16 O20         -0.6040     1.0310    -0.1820 o          1 ACW      -0.827800
     17 N29          9.4530    -1.1990     5.5890 ns         1 ACW      -0.113900
     18 C30          9.8930    -1.7830     6.8590 c3         1 ACW      -0.064300
     19 C31         11.2230    -2.4640     6.6630 c          1 ACW       0.978600
     20 C32         10.0350    -0.6780     7.9070 cx         1 ACW      -0.114000
     21 C33         10.4870    -1.0890     9.3100 cx         1 ACW      -0.083400
     22 C37         10.5150     0.6750     7.3780 c3         1 ACW       0.041900
     23 O42         11.8230    -3.0740     7.6980 o          1 ACW      -0.882300
     24 O43         11.7490    -2.4620     5.5750 o          1 ACW      -0.882300
     25 C40          9.0360    -0.6690     9.0660 cx         1 ACW      -0.083400
     26 H2           1.8670    -0.8850    -0.5100 hx         1 ACW       0.088700
     27 H3C1         1.5850    -0.8370     1.9780 hc         1 ACW       0.050200
     28 H3C2         1.7310     0.9250     1.9270 hc         1 ACW       0.050200
     29 H4C1         3.9730     0.7100     0.9070 hc         1 ACW       0.020200
     30 H4C2         3.8280    -1.0520     0.9600 hc         1 ACW       0.020200
     31 H7C1         3.7660     0.8020     3.3700 hc         1 ACW       0.033700
     32 H7C2         3.6200    -0.9600     3.4230 hc         1 ACW       0.033700
     33 H11          5.7290    -0.2030     4.9210 hn         1 ACW       0.197500
     34 H12          7.9980    -1.0290     3.2380 h1         1 ACW       0.080700
     35 H141         1.4850     1.3220    -1.5450 hn         1 ACW       0.211467
     36 H142         2.9690     1.0880    -0.9020 hn         1 ACW       0.211467
     37 H161         8.0040     1.6330     4.7070 h1         1 ACW       0.042200
     38 H162         9.3940     0.9050     3.8900 h1         1 ACW       0.042200
     39 H17          8.5060     2.7880     2.0430 hs         1 ACW       0.153800
     40 H29         10.1240    -0.9830     4.8790 hn         1 ACW       0.193500
     41 H30          9.1620    -2.5080     7.1960 h1         1 ACW       0.060700
     42 H331        11.1010    -0.3660     9.8330 hc         1 ACW       0.048700
     43 H332        10.6490    -2.1500     9.4570 hc         1 ACW       0.048700
     44 H371        11.1490     0.5200     6.5130 hc         1 ACW      -0.004300
     45 H372         9.6590     1.2770     7.0960 hc         1 ACW      -0.004300
     46 H373        11.0770     1.1860     8.1510 hc         1 ACW      -0.004300
     47 H401         8.7630     0.3100     9.4400 hc         1 ACW       0.048700
     48 H402         8.3110    -1.4740     9.0640 hc         1 ACW       0.048700
     49 H143         1.8690     1.9990    -0.1080 hn         1 ACW       0.211467
@<TRIPOS>BOND
     1     1     2 1   
     2     1    15 1   
     3     1    16 1   
     4     2     3 1   
     5     2    10 1   
     6     2    26 1   
     7     3     4 1   
     8     3    27 1   
     9     3    28 1   
    10     4     5 1   
    11     4    29 1   
    12     4    30 1   
    13     5     6 1   
    14     5    31 1   
    15     5    32 1   
    16     6     7 1   
    17     6    11 2   
    18     7     8 1   
    19     7    33 1   
    20     8     9 1   
    21     8    12 1   
    22     8    34 1   
    23     9    14 2   
    24     9    17 1   
    25    10    35 1   
    26    10    36 1   
    27    10    49 1   
    28    12    13 1   
    29    12    37 1   
    30    12    38 1   
    31    13    39 1   
    32    17    18 1   
    33    17    40 1   
    34    18    19 1   
    35    18    20 1   
    36    18    41 1   
    37    19    23 1   
    38    19    24 1   
    39    20    21 1   
    40    20    22 1   
    41    20    25 1   
    42    21    25 1   
    43    21    42 1   
    44    21    43 1   
    45    22    44 1   
    46    22    45 1   
    47    22    46 1   
    48    25    47 1   
    49    25    48 1   
@<TRIPOS>SUBSTRUCTURE
     1 ACW         1 TEMP              0 ****  ****    0 ROOT
