@<TRIPOS>MOLECULE
molecule
    7     6     1     0     0
SMALL
bcc


@<TRIPOS>ATOM
      1 C            0.0000     0.0000     0.0000 c          1 ACY       0.887600
      2 O            1.2080     0.0000     0.0000 o          1 ACY      -0.863800
      3 OXT         -0.6710     0.0000     1.1620 o          1 ACY      -0.863800
      4 CH3         -0.7530     0.0070    -1.3060 c3         1 ACY      -0.194100
      5 H1          -1.5430    -0.7340    -1.2710 hc         1 ACY       0.011367
      6 H2          -0.0740    -0.2290    -2.1160 hc         1 ACY       0.011367
      7 H3          -1.1840     0.9870    -1.4690 hc         1 ACY       0.011367
@<TRIPOS>BOND
     1     1     2 1
     2     1     3 1
     3     1     4 1
     4     4     5 1
     5     4     6 1
     6     4     7 1
@<TRIPOS>SUBSTRUCTURE
     1 ACY         1 TEMP              0 ****  ****    0 ROOT
