@<TRIPOS>MOLECULE
ACY
    7     6     1     0     0
SMALL
bcc


@<TRIPOS>ATOM
      1 C          -0.0060    0.0040    0.0380 c         1 ACY      0.901600
      2 O           1.2600    0.0130    0.0200 o         1 ACY     -0.861300
      3 OXT        -0.6880    0.0000    1.1060 o         1 ACY     -0.861300
      4 CH3        -0.7520    0.0010   -1.2950 c3        1 ACY     -0.200100
      5 H1         -0.0490   -0.1830   -2.1380 hc        1 ACY      0.006700
      6 H2         -1.5360   -0.7910   -1.2890 hc        1 ACY      0.006700
      7 H3         -1.2460    0.9890   -1.4420 hc        1 ACY      0.006700
@<TRIPOS>BOND
     1    1    2 1   
     2    1    3 1   
     3    1    4 1   
     4    4    5 1   
     5    4    6 1   
     6    4    7 1   
@<TRIPOS>SUBSTRUCTURE
     1 ACY         1 TEMP              0 ****  ****    0 ROOT
