@<TRIPOS>MOLECULE
ACZ
   31    31     1     0     0
SMALL
bcc


@<TRIPOS>ATOM
      1 NH           0.0000     0.0000     0.0000 nz         1 ACZ       0.063400
      2 CZ           1.4690     0.0000     0.0000 c3         1 ACZ       0.056900
      3 CE2          1.9610     0.0000     1.4150 c2         1 ACZ      -0.259200
      4 CD2          2.3870     1.0710     2.0120 c2         1 ACZ      -0.020700
      5 CG           2.4280     2.4120     1.3450 c3         1 ACZ      -0.005300
      6 CD1          2.3840     2.2760    -0.1470 c2         1 ACZ      -0.020700
      7 CE1          1.9590     1.2050    -0.7440 c2         1 ACZ      -0.259200
      8 CX           1.2280     3.2400     1.8070 c3         1 ACZ      -0.023400
      9 CB           1.2620     4.6110     1.1310 c3         1 ACZ      -0.029400
     10 CA           0.0620     5.4380     1.5930 c3         1 ACZ      -0.207500
     11 N           -1.1800     4.7450     1.2310 nz         1 ACZ       0.088400
     12 C            0.0960     6.7900     0.9280 c          1 ACZ       0.943600
     13 O2           0.7410     7.8110     1.5130 o          1 ACZ      -0.792800
     14 O           -0.4570     6.9530    -0.1340 o          1 ACZ      -0.792800
     15 HNH1        -0.3340    -0.9430    -0.0230 hn         1 ACZ       0.222133
     16 HNH2        -0.3340     0.4910    -0.8050 hn         1 ACZ       0.222133
     17 HCZ          1.8280    -0.8920    -0.4980 hx         1 ACZ       0.096700
     18 HE22         1.9620    -0.9340     1.9630 ha         1 ACZ       0.144500
     19 HD22         2.5720     1.0070     3.0770 ha         1 ACZ       0.135500
     20 HCG          3.3440     2.9180     1.6260 hc         1 ACZ       0.092700
     21 HD11         2.4210     3.1880    -0.7310 ha         1 ACZ       0.135500
     22 HE11         1.9590     1.1810    -1.8270 ha         1 ACZ       0.144500
     23 HCX1         0.3120     2.7280     1.5400 hc         1 ACZ       0.001200
     24 HCX2         1.2700     3.3670     2.8820 hc         1 ACZ       0.001200
     25 HCB1         2.1780     5.1230     1.3990 hc         1 ACZ       0.063200
     26 HCB2         1.2210     4.4840     0.0560 hc         1 ACZ       0.063200
     27 HCA          0.1040     5.5650     2.6680 hx         1 ACZ       0.097700
     28 HN1         -1.3400     3.9910     1.8700 hn         1 ACZ       0.206467
     29 HN2         -1.9460     5.3880     1.2750 hn         1 ACZ       0.206467
     30 HH3         -0.3340     0.4530     0.8280 hn         1 ACZ       0.222133
     31 HN3         -1.0940     4.3670     0.3080 hn         1 ACZ       0.206467
@<TRIPOS>BOND
     1     1     2 1   
     2     1    15 1   
     3     1    16 1   
     4     1    30 1   
     5     2     3 1   
     6     2     7 1   
     7     2    17 1   
     8     3     4 2   
     9     3    18 1   
    10     4     5 1   
    11     4    19 1   
    12     5     6 1   
    13     5     8 1   
    14     5    20 1   
    15     6     7 2   
    16     6    21 1   
    17     7    22 1   
    18     8     9 1   
    19     8    23 1   
    20     8    24 1   
    21     9    10 1   
    22     9    25 1   
    23     9    26 1   
    24    10    11 1   
    25    10    12 1   
    26    10    27 1   
    27    11    28 1   
    28    11    29 1   
    29    11    31 1   
    30    12    13 1   
    31    12    14 1   
@<TRIPOS>SUBSTRUCTURE
     1 ACZ         1 TEMP              0 ****  ****    0 ROOT
