@<TRIPOS>MOLECULE
molecule
   41    42     1     0     0
SMALL
bcc


@<TRIPOS>ATOM
      1 C1           0.0000     0.0000     0.0000 c3         1 AD0       0.345900
      2 C2           1.5340     0.0000     0.0000 c3         1 AD0       0.104100
      3 C3           2.0790     0.0000     1.4260 c3         1 AD0       0.125100
      4 C4           1.4120    -1.1110     2.2470 c3         1 AD0       0.150100
      5 C5          -0.1100    -1.1500     2.1020 c3         1 AD0       0.054100
      6 C6          -0.8530    -0.1050     2.8880 c          1 AD0       0.878600
      7 O1          -0.4490    -0.0530    -1.3520 os         1 AD0      -0.401600
      8 O2           2.0120    -1.1690    -0.6650 oh         1 AD0      -0.600800
      9 O3           1.8330     1.2780     2.0050 oh         1 AD0      -0.538800
     10 O4           1.7820    -1.0340     3.6160 oh         1 AD0      -0.534800
     11 O5          -0.5150    -1.1090     0.7400 os         1 AD0      -0.436600
     12 O6          -0.5710    -0.2100     4.2090 o          1 AD0      -0.828300
     13 C1'         -2.3180    -0.0430    -4.2910 c3         1 AD0       0.313900
     14 O60         -1.6070     0.7290     2.4080 o          1 AD0      -0.828300
     15 C2'         -1.8940    -1.3350    -3.5810 c3         1 AD0       0.102100
     16 C3'         -2.3540    -1.3260    -2.1190 c3         1 AD0       0.133100
     17 C4'         -1.8780    -0.0450    -1.4270 c3         1 AD0       0.141100
     18 C5'         -2.3200     1.1700    -2.2390 c3         1 AD0       0.025100
     19 C6'         -1.7660     2.4380    -1.6710 c          1 AD0       0.898600
     20 O2'         -2.4490    -2.4480    -4.2720 oh         1 AD0      -0.618800
     21 O3'         -1.8210    -2.4500    -1.4240 oh         1 AD0      -0.570800
     22 O5'         -1.8390     1.1040    -3.5810 os         1 AD0      -0.390600
     23 O6'         -2.2170     2.6340    -0.4080 o          1 AD0      -0.825300
     24 OAP         -1.0090     3.1980    -2.2570 o          1 AD0      -0.825300
     25 H1          -0.3500     0.9180     0.4560 h2         1 AD0       0.133700
     26 H2           1.8900     0.8830    -0.5170 h1         1 AD0       0.045700
     27 H3           3.1460    -0.1790     1.3940 h1         1 AD0      -0.009300
     28 HA           2.6470    -0.9220    -1.3170 ho         1 AD0       0.371000
     29 H4           1.7880    -2.0520     1.8640 h1         1 AD0       0.000700
     30 HB           2.6500     1.7360     2.1140 ho         1 AD0       0.369000
     31 H5          -0.4270    -2.1120     2.4870 h1         1 AD0       0.051700
     32 HC           2.3770    -1.7360     3.8210 ho         1 AD0       0.347000
     33 H4'         -2.3000     0.0090    -0.4310 h1         1 AD0       0.125700
     34 H2'         -0.8130    -1.4050    -3.6050 h1         1 AD0       0.067700
     35 H3'         -3.4360    -1.3630    -2.0880 h1         1 AD0       0.040700
     36 HE          -1.7600    -2.9240    -4.7060 ho         1 AD0       0.380000
     37 HF          -2.4970    -3.0980    -1.3100 ho         1 AD0       0.375000
     38 H5'         -3.4020     1.2180    -2.2490 h1         1 AD0       0.046700
     39 O1'         -3.7360    -0.0140    -4.4500 oh         1 AD0      -0.620800
     40 HD          -3.9500     0.3410    -5.2960 ho         1 AD0       0.383000
     41 H1'         -1.8660    -0.0400    -5.2750 h2         1 AD0       0.020700
@<TRIPOS>BOND
     1     1     2 1
     2     2     3 1
     3     3     4 1
     4     4     5 1
     5     5     6 1
     6     1     7 1
     7     2     8 1
     8     3     9 1
     9     4    10 1
    10     5    11 1
    11     1    11 1
    12     6    12 1
    13     6    14 1
    14    13    15 1
    15    15    16 1
    16     7    17 1
    17    16    17 1
    18    17    18 1
    19    18    19 1
    20    13    39 1
    21    15    20 1
    22    16    21 1
    23    13    22 1
    24    18    22 1
    25    19    23 1
    26    19    24 1
    27     1    25 1
    28     2    26 1
    29     3    27 1
    30     8    28 1
    31     4    29 1
    32     9    30 1
    33     5    31 1
    34    10    32 1
    35    17    33 1
    36    13    41 1
    37    15    34 1
    38    39    40 1
    39    16    35 1
    40    20    36 1
    41    21    37 1
    42    18    38 1
@<TRIPOS>SUBSTRUCTURE
     1 AD0         1 TEMP              0 ****  ****    0 ROOT
