@<TRIPOS>MOLECULE
AD0
   41    42     1     0     0
SMALL
bcc


@<TRIPOS>ATOM
      1 C1         -0.2770   -0.0520    0.2190 c3        1 AD0      0.297900
      2 C2          1.0120    0.7940    0.3020 c3        1 AD0      0.106100
      3 C3          1.8960    0.4270    1.5050 c3        1 AD0      0.126100
      4 C4          1.9540   -1.0960    1.7000 c3        1 AD0      0.105100
      5 C5          0.5560   -1.7320    1.7200 c3        1 AD0      0.001100
      6 C6         -0.2290   -1.3700    3.0010 c         1 AD0      0.886600
      7 O1         -0.6300   -0.1470   -1.1570 os        1 AD0     -0.397600
      8 O2          1.8050    0.6500   -0.8610 oh        1 AD0     -0.627800
      9 O3          1.4830    1.1160    2.6670 oh        1 AD0     -0.628800
     10 O4          2.7050   -1.4320    2.8500 oh        1 AD0     -0.625800
     11 O5         -0.1250   -1.4400    0.5060 os        1 AD0     -0.444600
     12 O6          0.0970   -1.9920    4.0550 o         1 AD0     -0.839800
     13 C1'        -1.8470   -0.7430   -4.1810 c3        1 AD0      0.304900
     14 O60        -1.1060   -0.4610    2.9690 o         1 AD0     -0.839800
     15 C2'        -2.0880   -1.7210   -3.0160 c3        1 AD0      0.093100
     16 C3'        -2.7680   -1.0110   -1.8350 c3        1 AD0      0.098100
     17 C4'        -1.9540    0.2550   -1.4840 c3        1 AD0      0.106100
     18 C5'        -1.9330    1.1520   -2.7270 c3        1 AD0      0.004100
     19 C6'        -1.2210    2.5290   -2.5460 c         1 AD0      0.938600
     20 O1'        -3.0880   -0.4890   -4.8280 oh        1 AD0     -0.676800
     21 O2'        -2.8340   -2.8320   -3.4780 oh        1 AD0     -0.599800
     22 O3'        -2.9190   -1.8800   -0.7360 oh        1 AD0     -0.610800
     23 O5'        -1.3050    0.5040   -3.8370 os        1 AD0     -0.404600
     24 O6'        -1.8960    3.5310   -2.9120 o         1 AD0     -0.824300
     25 OAP        -0.0680    2.5790   -2.0490 o         1 AD0     -0.824300
     26 H1         -1.0810    0.3770    0.8800 h2        1 AD0      0.092700
     27 H2          0.6870    1.8710    0.3950 h1        1 AD0      0.067700
     28 H3          2.9410    0.8080    1.3190 h1        1 AD0      0.067700
     29 HA          1.2610    0.9930   -1.5940 ho        1 AD0      0.460000
     30 H4          2.5390   -1.5220    0.8350 h1        1 AD0      0.064700
     31 HB          0.5720    0.8420    2.8670 ho        1 AD0      0.439000
     32 H5          0.6640   -2.8530    1.6870 h1        1 AD0      0.065700
     33 HC          2.1250   -1.3030    3.6170 ho        1 AD0      0.436000
     34 H4'        -2.4470    0.8010   -0.6360 h1        1 AD0      0.071700
     35 H1'        -1.1290   -1.1870   -4.9300 h2        1 AD0      0.056700
     36 H2'        -1.1010   -2.1450   -2.6770 h1        1 AD0      0.107700
     37 HD         -3.0870    0.4370   -5.1010 ho        1 AD0      0.424000
     38 H3'        -3.8180   -0.7220   -2.1210 h1        1 AD0      0.057700
     39 HE         -3.7040   -2.4940   -3.7240 ho        1 AD0      0.399000
     40 HF         -2.0510   -1.9640   -0.3090 ho        1 AD0      0.442000
     41 H5'        -3.0100    1.3550   -3.0020 h1        1 AD0      0.025700
@<TRIPOS>BOND
     1    1    2 1   
     2    1    7 1   
     3    1   11 1   
     4    1   26 1   
     5    2    3 1   
     6    2    8 1   
     7    2   27 1   
     8    3    4 1   
     9    3    9 1   
    10    3   28 1   
    11    4    5 1   
    12    4   10 1   
    13    4   30 1   
    14    5    6 1   
    15    5   11 1   
    16    5   32 1   
    17    6   12 1   
    18    6   14 1   
    19    7   17 1   
    20    8   29 1   
    21    9   31 1   
    22   10   33 1   
    23   13   15 1   
    24   13   20 1   
    25   13   23 1   
    26   13   35 1   
    27   15   16 1   
    28   15   21 1   
    29   15   36 1   
    30   16   17 1   
    31   16   22 1   
    32   16   38 1   
    33   17   18 1   
    34   17   34 1   
    35   18   19 1   
    36   18   23 1   
    37   18   41 1   
    38   19   24 1   
    39   19   25 1   
    40   20   37 1   
    41   21   39 1   
    42   22   40 1   
@<TRIPOS>SUBSTRUCTURE
     1 AD0         1 TEMP              0 ****  ****    0 ROOT
