@<TRIPOS>MOLECULE
AD1
   22    23     1     0     0
SMALL
bcc


@<TRIPOS>ATOM
      1 CAG          0.0000     0.0000     0.0000 c3         1 AD1       0.143800
      2 NAM          1.4620     0.0000     0.0000 nh         1 AD1      -0.340400
      3 CAA          2.2900    -0.0000    -1.2090 c3         1 AD1       0.224100
      4 CAI          1.9570     0.0000     1.2830 cc         1 AD1       0.104000
      5 CAF          3.2610     0.0010     1.7050 cd         1 AD1      -0.372200
      6 CAK          3.5820     0.0010     3.0720 c          1 AD1       0.548300
      7 OAC          4.7420     0.0010     3.4350 o          1 AD1      -0.529100
      8 CAJ          2.4700     0.0020     4.0790 c          1 AD1       0.507300
      9 OAB          2.7060     0.0020     5.2690 o          1 AD1      -0.486100
     10 CAE          1.0830     0.0020     3.5810 cd         1 AD1      -0.139200
     11 CAH          0.8560     0.0020     2.2570 cc         1 AD1      -0.096200
     12 CAL         -0.4390     0.0010     1.4720 c3         1 AD1       0.236300
     13 OAD         -1.2000    -1.1720     1.7660 oh         1 AD1      -0.565800
     14 HAG1        -0.3590    -0.9020    -0.4810 h1         1 AD1       0.030200
     15 HAG2        -0.3590     0.9020    -0.4820 h1         1 AD1       0.030200
     16 HAA1         2.8850    -0.9050    -1.2380 h1         1 AD1       0.012033
     17 HAA2         2.9440     0.8630    -1.1980 h1         1 AD1       0.012033
     18 HAA3         1.6520     0.0400    -2.0830 h1         1 AD1       0.012033
     19 HAF          4.0570     0.0010     0.9710 ha         1 AD1       0.136000
     20 HAE          0.2600     0.1380     4.2720 ha         1 AD1       0.121000
     21 HAL         -1.0110     0.8940     1.6920 h1         1 AD1       0.016700
     22 HOAD        -2.0880    -0.9280     1.9670 ho         1 AD1       0.395000
@<TRIPOS>BOND
     1     1     2 1   
     2     1    12 1   
     3     1    14 1   
     4     1    15 1   
     5     2     3 1   
     6     2     4 1   
     7     3    16 1   
     8     3    17 1   
     9     3    18 1   
    10     4     5 2   
    11     4    11 1   
    12     5     6 1   
    13     5    19 1   
    14     6     7 2   
    15     6     8 1   
    16     8     9 2   
    17     8    10 1   
    18    10    11 2   
    19    10    20 1   
    20    11    12 1   
    21    12    13 1   
    22    12    21 1   
    23    13    22 1   
@<TRIPOS>SUBSTRUCTURE
     1 AD1         1 TEMP              0 ****  ****    0 ROOT
