@<TRIPOS>MOLECULE
AD3
   33    35     1     0     0
SMALL
bcc


@<TRIPOS>ATOM
      1 O5'          0.0000     0.0000     0.0000 oh         1 AD3      -0.576800
      2 C5'          1.4290     0.0000     0.0000 c3         1 AD3       0.225400
      3 C4'          1.9400     0.0000     1.4410 c3         1 AD3       0.152100
      4 O4'          1.4970    -1.1880     2.1320 os         1 AD3      -0.377600
      5 C3'          3.4810    -0.0790     1.4690 c3         1 AD3       0.133100
      6 O3'          4.0460     1.2210     1.6470 oh         1 AD3      -0.548800
      7 C2'          3.7900    -0.9780     2.6890 c3         1 AD3       0.126100
      8 O2'          4.5580    -0.2600     3.6570 oh         1 AD3      -0.548800
      9 C1'          2.3970    -1.3370     3.2510 c3         1 AD3       0.145800
     10 N9           2.3840    -2.7180     3.7370 na         1 AD3       0.302700
     11 C8           2.0930    -3.8290     3.0050 cc         1 AD3       0.250700
     12 N7           2.1750    -4.8900     3.7530 nd         1 AD3      -0.501100
     13 C5           2.5300    -4.5320     5.0110 ca         1 AD3      -0.106900
     14 C6           2.7520    -5.2310     6.2070 ca         1 AD3       0.566200
     15 N6           2.6240    -6.6140     6.2380 nv         1 AD3      -0.537500
     16 N1           3.0890    -4.5750     7.3030 nb         1 AD3      -0.674000
     17 C2           3.2230    -3.2590     7.3250 ca         1 AD3       0.457200
     18 C3           3.0190    -2.5010     6.2050 ca         1 AD3      -0.274300
     19 C4           2.6620    -3.1340     5.0160 ca         1 AD3      -0.198200
     20 HO5'        -0.3140     0.1670    -0.8730 ho         1 AD3       0.391000
     21 H5'1         1.7900     0.8840    -0.5110 h1         1 AD3      -0.008300
     22 H5'2         1.7900    -0.8850    -0.5110 h1         1 AD3      -0.008300
     23 H4'          1.6020     0.8850     1.9660 h1         1 AD3       0.050700
     24 H3'          3.8510    -0.5380     0.5600 h1         1 AD3       0.013700
     25 HO3'         4.5890     1.4330     0.9060 ho         1 AD3       0.388000
     26 H2'          4.3110    -1.8740     2.3740 h1         1 AD3       0.021700
     27 HO2'         5.4440    -0.5840     3.6590 ho         1 AD3       0.395000
     28 H1'          2.1260    -0.6510     4.0440 h2         1 AD3       0.061700
     29 H8           1.8320    -3.8290     1.9530 h5         1 AD3       0.036800
     30 HN61         2.9160    -7.1610     5.4520 hn         1 AD3       0.273300
     31 HN62         2.2730    -7.0660     7.0590 hn         1 AD3       0.273300
     32 H2           3.5010    -2.7700     8.2510 h4         1 AD3      -0.024900
     33 H3           3.1340    -1.4240     6.2420 ha         1 AD3       0.119000
@<TRIPOS>BOND
     1     1     2 1   
     2     1    20 1   
     3     2     3 1   
     4     2    21 1   
     5     2    22 1   
     6     3     4 1   
     7     3     5 1   
     8     3    23 1   
     9     4     9 1   
    10     5     6 1   
    11     5     7 1   
    12     5    24 1   
    13     6    25 1   
    14     7     8 1   
    15     7     9 1   
    16     7    26 1   
    17     8    27 1   
    18     9    10 1   
    19     9    28 1   
    20    10    11 1   
    21    10    19 1   
    22    11    12 2   
    23    11    29 1   
    24    12    13 1   
    25    13    14 ar  
    26    13    19 ar  
    27    14    15 1   
    28    14    16 ar  
    29    15    30 1   
    30    15    31 1   
    31    16    17 ar  
    32    17    18 ar  
    33    17    32 1   
    34    18    19 ar  
    35    18    33 1   
@<TRIPOS>SUBSTRUCTURE
     1 AD3         1 TEMP              0 ****  ****    0 ROOT
