@<TRIPOS>MOLECULE
AD5
   56    60     1     0     0
SMALL
bcc


@<TRIPOS>ATOM
      1 CAK          0.0000     0.0000     0.0000 c3         1 AD5      -0.037400
      2 CAG          1.5360     0.0000     0.0000 c3         1 AD5      -0.019900
      3 CAF          2.1040     0.0000     1.4300 c3         1 AD5      -0.021400
      4 CAH          1.0600    -0.4680     2.4560 c3         1 AD5      -0.019900
      5 CAL          0.2690    -1.6670     1.9220 c3         1 AD5      -0.037400
      6 CBB         -0.5460    -1.2770     0.6660 c3         1 AD5       0.142500
      7 N6          -0.5180    -2.3860    -0.2990 nu         1 AD5      -0.506900
      8 C6          -1.5320    -3.2540    -0.4090 ca         1 AD5       0.640200
      9 N1          -2.8030    -2.8480    -0.5520 nb         1 AD5      -0.756000
     10 C5          -1.2190    -4.5470    -0.3660 ca         1 AD5      -0.251200
     11 N7          -0.0600    -5.1850    -0.2320 nc         1 AD5      -0.495100
     12 C8          -0.3090    -6.4910    -0.2540 cd         1 AD5       0.179700
     13 N9          -1.6220    -6.6570    -0.4000 na         1 AD5       0.236000
     14 C4          -2.1870    -5.4580    -0.4700 ca         1 AD5       0.263800
     15 N3          -3.4660    -5.0710    -0.6180 nb         1 AD5      -0.767000
     16 C2          -3.7860    -3.7590    -0.6650 ca         1 AD5       0.734900
     17 N2          -5.0850    -3.4210    -0.7970 nu         1 AD5      -0.219300
     18 CAV         -5.5280    -2.2240    -1.2500 ca         1 AD5      -0.022400
     19 CAB         -6.8180    -2.1980    -1.7780 ca         1 AD5      -0.135500
     20 CAD         -7.3750    -1.0200    -2.2550 ca         1 AD5      -0.110500
     21 CAA         -4.7950    -1.0330    -1.1950 ca         1 AD5      -0.135500
     22 CAC         -5.3440     0.1550    -1.6830 ca         1 AD5      -0.110500
     23 CAW         -6.6400     0.1650    -2.2110 ca         1 AD5       0.028600
     24 NBC         -7.1960     1.2930    -2.6950 nh         1 AD5      -0.443000
     25 CAM         -7.4110     2.4800    -1.8160 c3         1 AD5       0.165300
     26 CAI         -8.6670     3.2600    -2.2160 c3         1 AD5       0.197400
     27 OAU         -8.7130     3.4240    -3.6570 os         1 AD5      -0.403600
     28 CAJ         -8.8710     2.1520    -4.3300 c3         1 AD5       0.197400
     29 CAN         -7.5970     1.3310    -4.1340 c3         1 AD5       0.165300
     30 HAK1        -0.3550     0.8650     0.5460 hc         1 AD5       0.023700
     31 HAK2        -0.3550     0.0470    -1.0220 hc         1 AD5       0.023700
     32 HAG1         1.8880    -0.8840    -0.5190 hc         1 AD5       0.012450
     33 HAG2         1.8880     0.8840    -0.5180 hc         1 AD5       0.012450
     34 HBB         -1.5720    -1.0980     0.9650 h1         1 AD5       0.043700
     35 HAF1         2.4200     1.0050     1.6830 hc         1 AD5       0.010700
     36 HAF2         2.9590    -0.6650     1.4680 hc         1 AD5       0.010700
     37 HAH1         0.3760     0.3450     2.6630 hc         1 AD5       0.012450
     38 HAH2         1.5660    -0.7560     3.3700 hc         1 AD5       0.012450
     39 HAL1        -0.4090    -2.0150     2.6910 hc         1 AD5       0.023700
     40 HAL2         0.9600    -2.4610     1.6640 hc         1 AD5       0.023700
     41 H6           0.2810    -2.4950    -0.8920 hn         1 AD5       0.310800
     42 H8           0.4260    -7.2810    -0.1640 h5         1 AD5       0.035800
     43 H9          -2.1000    -7.5350    -0.4500 hn         1 AD5       0.123700
     44 H2          -5.7710    -4.1030    -0.5410 hn         1 AD5       0.283800
     45 HAB         -7.3960    -3.1130    -1.8160 ha         1 AD5       0.128000
     46 HAA         -3.7920    -1.0350    -0.7870 ha         1 AD5       0.128000
     47 HAD         -8.3790    -1.0210    -2.6620 ha         1 AD5       0.107500
     48 HAC         -4.7710     1.0730    -1.6420 ha         1 AD5       0.107500
     49 HAM1        -7.5160     2.1450    -0.7910 h1         1 AD5       0.016700
     50 HAM2        -6.5510     3.1350    -1.8920 h1         1 AD5       0.016700
     51 HAN1        -6.7970     1.7750    -4.7130 h1         1 AD5       0.016700
     52 HAN2        -7.7730     0.3190    -4.4790 h1         1 AD5       0.016700
     53 HAI1        -8.6470     4.2360    -1.7460 h1         1 AD5       0.010950
     54 HAI2        -9.5450     2.7170    -1.8890 h1         1 AD5       0.010950
     55 HAJ1        -9.0350     2.3200    -5.3870 h1         1 AD5       0.010950
     56 HAJ2        -9.7140     1.6210    -3.9060 h1         1 AD5       0.010950
@<TRIPOS>BOND
     1     1     2 1   
     2     1     6 1   
     3     1    30 1   
     4     1    31 1   
     5     2     3 1   
     6     2    32 1   
     7     2    33 1   
     8     3     4 1   
     9     3    35 1   
    10     3    36 1   
    11     4     5 1   
    12     4    37 1   
    13     4    38 1   
    14     5     6 1   
    15     5    39 1   
    16     5    40 1   
    17     6     7 1   
    18     6    34 1   
    19     7     8 1   
    20     7    41 1   
    21     8     9 ar  
    22     8    10 ar  
    23     9    16 ar  
    24    10    11 1   
    25    10    14 ar  
    26    11    12 2   
    27    12    13 1   
    28    12    42 1   
    29    13    14 1   
    30    13    43 1   
    31    14    15 ar  
    32    15    16 ar  
    33    16    17 1   
    34    17    18 1   
    35    17    44 1   
    36    18    19 ar  
    37    18    21 ar  
    38    19    20 ar  
    39    19    45 1   
    40    20    23 ar  
    41    20    47 1   
    42    21    22 ar  
    43    21    46 1   
    44    22    23 ar  
    45    22    48 1   
    46    23    24 1   
    47    24    25 1   
    48    24    29 1   
    49    25    26 1   
    50    25    49 1   
    51    25    50 1   
    52    26    27 1   
    53    26    53 1   
    54    26    54 1   
    55    27    28 1   
    56    28    29 1   
    57    28    55 1   
    58    28    56 1   
    59    29    51 1   
    60    29    52 1   
@<TRIPOS>SUBSTRUCTURE
     1 AD5         1 TEMP              0 ****  ****    0 ROOT
