@<TRIPOS>MOLECULE
molecule
   27    28     1     0     0
SMALL
bcc


@<TRIPOS>ATOM
      1 NAI          0.0000     0.0000     0.0000 nc         1 AD6      -0.745000
      2 CAH          1.3480     0.0000     0.0000 cc         1 AD6       0.423200
      3 CAN          1.8770     0.0000     1.2300 cd         1 AD6      -0.241300
      4 SAL          0.7000     0.0140     2.3480 ss         1 AD6       0.012700
      5 CAQ         -0.5590     0.0160     1.2160 cd         1 AD6       0.629300
      6 NAK         -1.9060    -0.0060     1.3790 nu         1 AD6      -0.702300
      7 CAO         -2.5850     0.2770     2.5150 ca         1 AD6       0.191600
      8 CAE         -2.0520     0.1970     3.8070 ca         1 AD6      -0.199000
      9 CAG         -2.8360     0.5080     4.9240 ca         1 AD6      -0.042500
     10 CAD         -3.9200     0.6580     2.3630 ca         1 AD6      -0.199000
     11 CAF         -4.7080     0.9620     3.4790 ca         1 AD6      -0.042500
     12 CAP         -4.1720     0.8950     4.7690 ca         1 AD6      -0.195600
     13 CAM         -4.9620     1.2140     5.8860 c          1 AD6       0.681700
     14 OAB         -6.1750     0.9800     5.9000 o          1 AD6      -0.606100
     15 NAJ         -4.2960     1.7990     6.9080 ns         1 AD6      -0.586900
     16 CAA         -5.0430     2.1750     8.1250 c3         1 AD6       0.094300
     17 Br           3.7370    -0.0170     1.5770 br         1 AD6      -0.025100
     18 HAH          1.9440    -0.0100    -0.9050 h4         1 AD6       0.057100
     19 HAK         -2.4520    -0.2580     0.5800 hn         1 AD6       0.468800
     20 HAE         -1.0190    -0.1010     3.9430 ha         1 AD6       0.138500
     21 HAD         -4.3510     0.7150     1.3710 ha         1 AD6       0.138500
     22 HAG         -2.4060     0.4460     5.9170 ha         1 AD6       0.149000
     23 HAF         -5.7410     1.2580     3.3410 ha         1 AD6       0.149000
     24 HAJ         -3.3620     2.1320     6.7710 hn         1 AD6       0.320500
     25 HAA1        -4.3470     2.4940     8.8910 h1         1 AD6       0.043700
     26 HAA2        -5.6060     1.3210     8.4810 h1         1 AD6       0.043700
     27 HAA3        -5.7230     2.9860     7.8940 h1         1 AD6       0.043700
@<TRIPOS>BOND
     1     1     2 1
     2     1     5 2
     3     2     3 2
     4     3     4 1
     5     3    17 1
     6     4     5 1
     7     5     6 1
     8     6     7 1
     9     7     8 ar
    10     7    10 ar
    11     8     9 ar
    12     9    12 ar
    13    10    11 ar
    14    11    12 ar
    15    12    13 1
    16    13    14 2
    17    13    15 1
    18    15    16 1
    19     2    18 1
    20     6    19 1
    21     8    20 1
    22    10    21 1
    23     9    22 1
    24    11    23 1
    25    15    24 1
    26    16    25 1
    27    16    26 1
    28    16    27 1
@<TRIPOS>SUBSTRUCTURE
     1 AD6         1 TEMP              0 ****  ****    0 ROOT
