@<TRIPOS>MOLECULE
AD6
   27    28     1     0     0
SMALL
bcc


@<TRIPOS>ATOM
      1 NAI          0.0000     0.0000     0.0000 nc         1 AD6      -0.680000
      2 CAH          1.3480     0.0000     0.0000 cc         1 AD6       0.424200
      3 CAN          1.8770     0.0000     1.2300 cd         1 AD6      -0.140300
      4 SAL          0.7000     0.0140     2.3480 ss         1 AD6      -0.160300
      5 CAQ         -0.5590     0.0160     1.2160 cd         1 AD6       0.494300
      6 NAK         -1.9060    -0.0060     1.3790 nu         1 AD6      -0.180300
      7 CAO         -2.5850     0.2770     2.5150 ca         1 AD6       0.006600
      8 CAE         -2.0520     0.1970     3.8070 ca         1 AD6      -0.173500
      9 CAG         -2.8360     0.5080     4.9240 ca         1 AD6      -0.008000
     10 CAD         -3.9200     0.6580     2.3630 ca         1 AD6      -0.173500
     11 CAF         -4.7080     0.9620     3.4790 ca         1 AD6      -0.008000
     12 CAP         -4.1720     0.8950     4.7690 ca         1 AD6      -0.209600
     13 CAM         -4.9620     1.2140     5.8860 c          1 AD6       0.605700
     14 OAB         -6.1750     0.9800     5.9000 o          1 AD6      -0.645100
     15 NAJ         -4.2960     1.7990     6.9080 ns         1 AD6      -0.204900
     16 CAA         -5.0430     2.1750     8.1250 c3         1 AD6       0.081300
     17 Br           3.7370    -0.0170     1.5770 br         1 AD6      -0.016100
     18 HAH          1.9440    -0.0100    -0.9050 h4         1 AD6       0.011100
     19 HAK         -2.4520    -0.2580     0.5800 hn         1 AD6       0.288800
     20 HAE         -1.0190    -0.1010     3.9430 ha         1 AD6       0.123500
     21 HAD         -4.3510     0.7150     1.3710 ha         1 AD6       0.123500
     22 HAG         -2.4060     0.4460     5.9170 ha         1 AD6       0.114500
     23 HAF         -5.7410     1.2580     3.3410 ha         1 AD6       0.114500
     24 HAJ         -3.3620     2.1320     6.7710 hn         1 AD6       0.181500
     25 HAA1        -4.3470     2.4940     8.8910 h1         1 AD6       0.010033
     26 HAA2        -5.6060     1.3210     8.4810 h1         1 AD6       0.010033
     27 HAA3        -5.7230     2.9860     7.8940 h1         1 AD6       0.010033
@<TRIPOS>BOND
     1     1     2 1   
     2     1     5 2   
     3     2     3 2   
     4     2    18 1   
     5     3     4 1   
     6     3    17 1   
     7     4     5 1   
     8     5     6 1   
     9     6     7 1   
    10     6    19 1   
    11     7     8 ar  
    12     7    10 ar  
    13     8     9 ar  
    14     8    20 1   
    15     9    12 ar  
    16     9    22 1   
    17    10    11 ar  
    18    10    21 1   
    19    11    12 ar  
    20    11    23 1   
    21    12    13 1   
    22    13    14 2   
    23    13    15 1   
    24    15    16 1   
    25    15    24 1   
    26    16    25 1   
    27    16    26 1   
    28    16    27 1   
@<TRIPOS>SUBSTRUCTURE
     1 AD6         1 TEMP              0 ****  ****    0 ROOT
