@<TRIPOS>MOLECULE
molecule
   69    70     1     0     0
SMALL
bcc


@<TRIPOS>ATOM
      1 CBA          0.0000     0.0000     0.0000 c3         1 AD7      -0.081400
      2 CAZ          1.5300     0.0000     0.0000 c3         1 AD7      -0.082400
      3 CAY          2.0400     0.0000     1.4430 c3         1 AD7      -0.080400
      4 CAX          3.5700    -0.0000     1.4420 c3         1 AD7      -0.079400
      5 CAW          4.0800    -0.0000     2.8860 c3         1 AD7      -0.081400
      6 CAV          5.6100    -0.0000     2.8860 c3         1 AD7       0.130400
      7 OAK          6.0870     0.1120     4.2280 os         1 AD7      -0.393600
      8 CAJ          7.5060     0.2350     4.3330 c3         1 AD7       0.355900
      9 OAS          8.1240    -0.9770     3.8930 os         1 AD7      -0.433600
     10 CAR          9.5520    -0.9520     3.9330 c3         1 AD7       0.031100
     11 CAT         10.1000    -2.2840     3.4170 c3         1 AD7      -0.041600
     12 OAU          9.7630    -2.4350     2.0360 oh         1 AD7      -0.660800
     13 CAP         10.0170    -0.7320     5.3750 c3         1 AD7       0.074100
     14 OAQ          9.5810    -1.8230     6.1890 oh         1 AD7      -0.517800
     15 CAN          9.4160     0.5730     5.9040 c3         1 AD7       0.033500
     16 NAO          9.7950     0.7540     7.3120 nz         1 AD7      -0.858600
     17 CAL          7.8900     0.5030     5.7900 c3         1 AD7       0.096100
     18 OAM          7.3210     1.7430     6.2140 os         1 AD7      -0.442600
     19 CAA          6.8960     1.7520     7.5770 c3         1 AD7       0.220900
     20 CAB          6.6080     3.1910     8.0140 c3         1 AD7      -0.066400
     21 OAI          5.7080     0.9680     7.7120 os         1 AD7      -0.443600
     22 CAE          4.6180     1.4190     6.9060 c3         1 AD7       0.074100
     23 CAF          3.4160     0.4930     7.1090 c3         1 AD7      -0.099100
     24 CAD          4.2390     2.8450     7.3150 c3         1 AD7       0.072100
     25 OAH          3.8020     2.8510     8.6760 oh         1 AD7      -0.526800
     26 CAC          5.4620     3.7530     7.1650 c3         1 AD7       0.116100
     27 OAG          5.1370     5.0710     7.6140 oh         1 AD7      -0.526800
     28 HBA         -0.3610    -0.8850     0.5100 hc         1 AD7       0.042700
     29 C19         -0.5100     0.0010    -1.4420 c3         1 AD7      -0.083400
     30 HBAA        -0.3610     0.8840     0.5110 hc         1 AD7       0.042700
     31 HAZ          1.8910    -0.8850    -0.5110 hc         1 AD7       0.043200
     32 HAZA         1.8910     0.8850    -0.5110 hc         1 AD7       0.043200
     33 HAY          1.6790     0.8850     1.9540 hc         1 AD7       0.044700
     34 HAYA         1.6790    -0.8850     1.9540 hc         1 AD7       0.044700
     35 HAX          3.9310    -0.8850     0.9320 hc         1 AD7       0.046200
     36 HAXA         3.9310     0.8840     0.9320 hc         1 AD7       0.046200
     37 HAW          3.7190     0.8850     3.3960 hc         1 AD7       0.054700
     38 HAWA         3.7190    -0.8850     3.3960 hc         1 AD7       0.054700
     39 HAV          5.9710    -0.9240     2.4500 h1         1 AD7       0.043200
     40 HAVA         5.9710     0.8390     2.3030 h1         1 AD7       0.043200
     41 HAJ          7.8490     1.0560     3.7150 h2         1 AD7       0.041700
     42 HAR          9.5200    -0.0140     3.3910 h1         1 AD7       0.063700
     43 HAT         10.3290    -1.2750     3.0980 h1         1 AD7       0.227200
     44 HATA         9.2340    -2.7210     3.9000 h1         1 AD7       0.227200
     45 HOAU        10.3340    -3.0740     1.6420 ho         1 AD7       0.453000
     46 HAP         11.0980    -0.6660     5.3980 h1         1 AD7       0.067700
     47 HOAQ        10.5230    -1.7850     6.2240 ho         1 AD7       0.416000
     48 HAN          9.7840     1.4050     5.3150 hx         1 AD7       0.120700
     49 HNAO        10.1590     1.5460     6.8200 hn         1 AD7       0.481800
     50 HNAA        10.4900     0.1130     7.6420 hn         1 AD7       0.481800
     51 HAL          7.5200    -0.3020     6.4130 h1         1 AD7       0.117700
     52 HAA          7.2620     0.8210     7.9940 h2         1 AD7       0.102700
     53 HAB          6.9510     3.0390     9.0300 hc         1 AD7       0.065700
     54 HABA         7.4320     3.7650     7.6080 hc         1 AD7       0.065700
     55 HAE          4.9140     1.4100     5.8640 h1         1 AD7       0.063700
     56 HAF          3.6670     0.4450     6.0570 hc         1 AD7       0.072033
     57 HAFA         2.4860     1.0020     7.3300 hc         1 AD7       0.072033
     58 HAFB         3.6320    -0.4110     7.6660 hc         1 AD7       0.072033
     59 HAD          3.4440     3.2040     6.6730 h1         1 AD7       0.097700
     60 HOAH         4.6300     2.5190     8.9800 ho         1 AD7       0.392000
     61 HAC          5.7650     3.7830     6.1250 h1         1 AD7       0.059700
     62 HOAG         5.3970     5.1210     6.7090 ho         1 AD7       0.405000
     63 H35         -0.1490    -0.8840    -1.9530 hc         1 AD7       0.041200
     64 H36         -0.1490     0.8850    -1.9520 hc         1 AD7       0.041200
     65 C20         -2.0400     0.0010    -1.4420 c3         1 AD7      -0.092100
     66 H37         -2.4010    -0.8840    -0.9310 hc         1 AD7       0.035367
     67 H38         -2.4010     0.8850    -0.9320 hc         1 AD7       0.035367
     68 H39         -2.4010     0.0000    -2.4630 hc         1 AD7       0.035367
     69 HAO3         9.0330     0.9600     7.9260 hn         1 AD7       0.481800
@<TRIPOS>BOND
     1     1     2 1
     2     1    28 1
     3     1    29 1
     4     1    30 1
     5     2     3 1
     6     2    31 1
     7     2    32 1
     8     3     4 1
     9     3    33 1
    10     3    34 1
    11     4     5 1
    12     4    35 1
    13     4    36 1
    14     5     6 1
    15     5    37 1
    16     5    38 1
    17     6     7 1
    18     6    39 1
    19     6    40 1
    20     7     8 1
    21     8     9 1
    22     8    17 1
    23     8    41 1
    24     9    10 1
    25    10    11 1
    26    10    13 1
    27    10    42 1
    28    11    12 1
    29    11    43 1
    30    11    44 1
    31    12    45 1
    32    13    14 1
    33    13    15 1
    34    13    46 1
    35    14    47 1
    36    15    16 1
    37    15    17 1
    38    15    48 1
    39    16    49 1
    40    16    50 1
    41    17    18 1
    42    17    51 1
    43    18    19 1
    44    19    20 1
    45    19    21 1
    46    19    52 1
    47    20    26 1
    48    20    53 1
    49    20    54 1
    50    21    22 1
    51    22    23 1
    52    22    24 1
    53    22    55 1
    54    23    56 1
    55    23    57 1
    56    23    58 1
    57    24    25 1
    58    24    26 1
    59    24    59 1
    60    25    60 1
    61    26    27 1
    62    26    61 1
    63    27    62 1
    64    29    63 1
    65    29    64 1
    66    29    65 1
    67    65    66 1
    68    65    67 1
    69    65    68 1
    70    69    16 1
@<TRIPOS>SUBSTRUCTURE
     1 AD7         1 TEMP              0 ****  ****    0 ROOT
