@<TRIPOS>MOLECULE
AD7
   69    71     1     0     0
SMALL
bcc


@<TRIPOS>ATOM
      1 CBA          0.0000     0.0000     0.0000 c3         1 AD7      -0.108000
      2 CAZ          1.5300     0.0000     0.0000 c3         1 AD7      -0.107000
      3 CAY          2.0400     0.0000     1.4430 c3         1 AD7      -0.106000
      4 CAX          3.5700    -0.0000     1.4420 c3         1 AD7      -0.101000
      5 CAW          4.0800    -0.0000     2.8860 c3         1 AD7      -0.114000
      6 CAV          5.6100    -0.0000     2.8860 c3         1 AD7       0.057000
      7 OAK          6.0870     0.1120     4.2280 os         1 AD7      -0.244000
      8 CAJ          7.5060     0.2350     4.3330 c3         1 AD7       0.223000
      9 OAS          8.1240    -0.9770     3.8930 os         1 AD7      -0.272000
     10 CAR          9.5520    -0.9520     3.9330 DU         1 AD7      -0.076000
     11 CAT         10.1000    -2.2840     3.4170 c3         1 AD7      -0.169000
     12 OAU          9.7630    -2.4350     2.0360 oh         1 AD7      -0.362000
     13 CAP         10.0170    -0.7320     5.3750 c3         1 AD7       0.035000
     14 OAQ          9.5810    -1.8230     6.1890 oh         1 AD7      -0.257000
     15 CAN          9.4160     0.5730     5.9040 c3         1 AD7      -0.322000
     16 NAO          9.7950     0.7540     7.3120 nz         1 AD7       0.741000
     17 CAL          7.8900     0.5030     5.7900 c3         1 AD7       0.012000
     18 OAM          7.3210     1.7430     6.2140 os         1 AD7      -0.274000
     19 CAA          6.8960     1.7520     7.5770 c3         1 AD7       0.075000
     20 CAB          6.6080     3.1910     8.0140 c3         1 AD7      -0.088000
     21 OAI          5.7080     0.9680     7.7120 os         1 AD7      -0.287000
     22 CAE          4.6180     1.4190     6.9060 c3         1 AD7      -0.002000
     23 CAF          3.4160     0.4930     7.1090 c3         1 AD7      -0.141000
     24 CAD          4.2390     2.8450     7.3150 c3         1 AD7      -0.006000
     25 OAH          3.8020     2.8510     8.6760 oh         1 AD7      -0.257000
     26 CAC          5.4620     3.7530     7.1650 c3         1 AD7       0.061000
     27 OAG          5.1370     5.0710     7.6140 oh         1 AD7      -0.261000
     28 HBA         -0.3610    -0.8850     0.5100 hc         1 AD7       0.055000
     29 C19         -0.5100     0.0010    -1.4420 c3         1 AD7      -0.106000
     30 HBAA        -0.3610     0.8840     0.5110 hc         1 AD7       0.055000
     31 HAZ          1.8910    -0.8850    -0.5110 hc         1 AD7       0.055000
     32 HAZA         1.8910     0.8850    -0.5110 hc         1 AD7       0.055000
     33 HAY          1.6790     0.8850     1.9540 hc         1 AD7       0.056000
     34 HAYA         1.6790    -0.8850     1.9540 hc         1 AD7       0.056000
     35 HAX          3.9310    -0.8850     0.9320 hc         1 AD7       0.057000
     36 HAXA         3.9310     0.8840     0.9320 hc         1 AD7       0.057000
     37 HAW          3.7190     0.8850     3.3960 hc         1 AD7       0.063500
     38 HAWA         3.7190    -0.8850     3.3960 hc         1 AD7       0.063500
     39 HAV          5.9710    -0.9240     2.4500 h1         1 AD7       0.046500
     40 HAVA         5.9710     0.8390     2.3030 h1         1 AD7       0.046500
     41 HAJ          7.8490     1.0560     3.7150 h2         1 AD7       0.045000
     42 HAR          9.5200    -0.0140     3.3910 ha         1 AD7       0.088000
     43 HAT         10.3290    -1.2750     3.0980 DU         1 AD7       0.296000
     44 HATA         9.2340    -2.7210     3.9000 h1         1 AD7       0.173000
     45 HOAU        10.3340    -3.0740     1.6420 ho         1 AD7       0.242000
     46 HAP         11.0980    -0.6660     5.3980 h1         1 AD7       0.072000
     47 HOAQ        10.5230    -1.7850     6.2240 ho         1 AD7       0.216000
     48 HAN          9.7840     1.4050     5.3150 hx         1 AD7       0.142000
     49 HNAO        10.1590     1.5460     6.8200 hn         1 AD7       0.057333
     50 HNAA        10.4900     0.1130     7.6420 hn         1 AD7       0.057333
     51 HAL          7.5200    -0.3020     6.4130 h1         1 AD7       0.121000
     52 HAA          7.2620     0.8210     7.9940 h2         1 AD7       0.106000
     53 HAB          6.9510     3.0390     9.0300 hc         1 AD7       0.067500
     54 HABA         7.4320     3.7650     7.6080 hc         1 AD7       0.067500
     55 HAE          4.9140     1.4100     5.8640 h1         1 AD7       0.080000
     56 HAF          3.6670     0.4450     6.0570 hc         1 AD7       0.078667
     57 HAFA         2.4860     1.0020     7.3300 hc         1 AD7       0.078667
     58 HAFB         3.6320    -0.4110     7.6660 hc         1 AD7       0.078667
     59 HAD          3.4440     3.2040     6.6730 h1         1 AD7       0.097000
     60 HOAH         4.6300     2.5190     8.9800 ho         1 AD7       0.188000
     61 HAC          5.7650     3.7830     6.1250 h1         1 AD7       0.060000
     62 HOAG         5.3970     5.1210     6.7090 ho         1 AD7       0.203000
     63 H35         -0.1490    -0.8840    -1.9530 hc         1 AD7       0.051500
     64 H36         -0.1490     0.8850    -1.9520 hc         1 AD7       0.051500
     65 C20         -2.0400     0.0010    -1.4420 c3         1 AD7      -0.111000
     66 H37         -2.4010    -0.8840    -0.9310 hc         1 AD7       0.041667
     67 H38         -2.4010     0.8850    -0.9320 hc         1 AD7       0.041667
     68 H39         -2.4010     0.0000    -2.4630 hc         1 AD7       0.041667
     69 HAO3         9.0330     0.9600     7.9260 hn         1 AD7       0.057333
@<TRIPOS>BOND
     1     1     2 1   
     2     1    28 1   
     3     1    29 1   
     4     1    30 1   
     5     2     3 1   
     6     2    31 1   
     7     2    32 1   
     8     3     4 1   
     9     3    33 1   
    10     3    34 1   
    11     4     5 1   
    12     4    35 1   
    13     4    36 1   
    14     5     6 1   
    15     5    37 1   
    16     5    38 1   
    17     6     7 1   
    18     6    39 1   
    19     6    40 1   
    20     7     8 1   
    21     8     9 1   
    22     8    17 1   
    23     8    41 1   
    24     9    10 1   
    25    10    11 1   
    26    10    13 1   
    27    10    42 1   
    28    10    43 1   
    29    11    12 1   
    30    11    43 1   
    31    11    44 1   
    32    12    45 1   
    33    13    14 1   
    34    13    15 1   
    35    13    46 1   
    36    14    47 1   
    37    15    16 1   
    38    15    17 1   
    39    15    48 1   
    40    16    49 1   
    41    16    50 1   
    42    16    69 1   
    43    17    18 1   
    44    17    51 1   
    45    18    19 1   
    46    19    20 1   
    47    19    21 1   
    48    19    52 1   
    49    20    26 1   
    50    20    53 1   
    51    20    54 1   
    52    21    22 1   
    53    22    23 1   
    54    22    24 1   
    55    22    55 1   
    56    23    56 1   
    57    23    57 1   
    58    23    58 1   
    59    24    25 1   
    60    24    26 1   
    61    24    59 1   
    62    25    60 1   
    63    26    27 1   
    64    26    61 1   
    65    27    62 1   
    66    29    63 1   
    67    29    64 1   
    68    29    65 1   
    69    65    66 1   
    70    65    67 1   
    71    65    68 1   
@<TRIPOS>SUBSTRUCTURE
     1 AD7         1 TEMP              0 ****  ****    0 ROOT
