@<TRIPOS>MOLECULE
AD8
   38    41     1     0     0
SMALL
bcc


@<TRIPOS>ATOM
      1 N          -0.0100   -0.0960   -0.0060 na        1 AD8     -0.213900
      2 CAQ         0.8630   -0.9180    0.7280 cc        1 AD8      0.413400
      3 NAP         1.1800   -0.3580    1.9120 nd        1 AD8     -0.674000
      4 CAO         0.5010    0.8610    1.9560 cd        1 AD8      0.297200
      5 CAN        -0.2410    1.0440    0.7780 cc        1 AD8     -0.267600
      6 CA         -0.5190   -0.3030   -1.3240 c3        1 AD8     -0.057700
      7 C          -0.9450   -1.7240   -1.6700 c         1 AD8      0.563100
      8 O          -0.4980   -2.7090   -1.0800 o         1 AD8     -0.512100
      9 CAE        -1.9280   -1.8470   -2.8190 c3        1 AD8     -0.143000
     10 CAF        -3.3300   -1.4570   -2.3330 c3        1 AD8     -0.062400
     11 CAI        -1.9630   -3.3030   -3.3070 c3        1 AD8     -0.062400
     12 CAD        -1.5280   -0.9450   -3.9910 c3        1 AD8     -0.062400
     13 CAC        -2.5350   -1.0970   -5.1270 c3        1 AD8     -0.061033
     14 CAB        -3.9220   -0.6990   -4.6320 c3        1 AD8     -0.072067
     15 CAH        -2.5610   -2.5460   -5.6010 c3        1 AD8     -0.072067
     16 CAJ        -2.9670   -3.4500   -4.4410 c3        1 AD8     -0.061033
     17 CAG        -4.3550   -3.0540   -3.9480 c3        1 AD8     -0.072067
     18 CAA        -4.3300   -1.6050   -3.4750 c3        1 AD8     -0.061033
     19 HAQ         1.1890   -1.8990    0.3590 h5        1 AD8      0.080100
     20 HAO         0.5820    1.5260    2.8150 h4        1 AD8      0.041100
     21 HAN        -0.8850    1.8560    0.4510 h4        1 AD8      0.172000
     22 HA          0.2740   -0.0200   -2.0820 h1        1 AD8      0.077700
     23 HAA        -1.4020    0.3850   -1.4700 h1        1 AD8      0.077700
     24 HAF        -3.3300   -0.3970   -1.9710 hc        1 AD8      0.049700
     25 HAFA       -3.6270   -2.1180   -1.4790 hc        1 AD8      0.049700
     26 HAI        -2.2420   -3.9720   -2.4530 hc        1 AD8      0.049700
     27 HAIA       -0.9410   -3.6020   -3.6550 hc        1 AD8      0.049700
     28 HAD        -0.5050   -1.2270   -4.3510 hc        1 AD8      0.049700
     29 HADA       -1.5020    0.1270   -3.6670 hc        1 AD8      0.049700
     30 HAC        -2.2340   -0.4290   -5.9770 hc        1 AD8      0.055033
     31 HAB        -3.9150    0.3690   -4.2960 hc        1 AD8      0.044700
     32 HABA       -4.6630   -0.7930   -5.4660 hc        1 AD8      0.044700
     33 HAH        -3.2900   -2.6570   -6.4440 hc        1 AD8      0.044700
     34 HAHA       -1.5490   -2.8420   -5.9770 hc        1 AD8      0.044700
     35 HAJ        -2.9820   -4.5190   -4.7850 hc        1 AD8      0.055033
     36 HAG        -4.6640   -3.7240   -3.1060 hc        1 AD8      0.044700
     37 HAGA       -5.1010   -3.1700   -4.7750 hc        1 AD8      0.044700
     38 HAAA       -5.3500   -1.3110   -3.1090 hc        1 AD8      0.055033
@<TRIPOS>BOND
     1    1    2 1   
     2    1    5 1   
     3    1    6 1   
     4    2    3 2   
     5    2   19 1   
     6    3    4 1   
     7    4    5 2   
     8    4   20 1   
     9    5   21 1   
    10    6    7 1   
    11    6   22 1   
    12    6   23 1   
    13    7    8 2   
    14    7    9 1   
    15    9   10 1   
    16    9   11 1   
    17    9   12 1   
    18   10   18 1   
    19   10   24 1   
    20   10   25 1   
    21   11   16 1   
    22   11   26 1   
    23   11   27 1   
    24   12   13 1   
    25   12   28 1   
    26   12   29 1   
    27   13   14 1   
    28   13   15 1   
    29   13   30 1   
    30   14   18 1   
    31   14   31 1   
    32   14   32 1   
    33   15   16 1   
    34   15   33 1   
    35   15   34 1   
    36   16   17 1   
    37   16   35 1   
    38   17   18 1   
    39   17   36 1   
    40   17   37 1   
    41   18   38 1   
@<TRIPOS>SUBSTRUCTURE
     1 AD8         1 TEMP              0 ****  ****    0 ROOT
