@<TRIPOS>MOLECULE
molecule
   38    41     1     0     0
SMALL
bcc


@<TRIPOS>ATOM
      1 N            0.0000     0.0000     0.0000 na         1 AD8      -0.180900
      2 CAQ          1.3500     0.0000     0.0000 cc         1 AD8       0.402400
      3 NAP          1.7690     0.0000     1.2360 nd         1 AD8      -0.694000
      4 CAO          0.7120     0.0010     2.0610 cd         1 AD8       0.314200
      5 CAN         -0.4050     0.0070     1.3070 cc         1 AD8      -0.271600
      6 CA          -0.8700    -0.0000    -1.1800 c3         1 AD8      -0.057700
      7 C           -1.1690    -1.4210    -1.5830 c          1 AD8       0.544100
      8 O           -0.7040    -2.3390    -0.9500 o          1 AD8      -0.487100
      9 CAE         -2.0470    -1.6960    -2.7750 c3         1 AD8      -0.152000
     10 CAF         -3.4280    -1.0800    -2.5430 c3         1 AD8      -0.056733
     11 CAI         -2.1900    -3.2090    -2.9650 c3         1 AD8      -0.056733
     12 CAD         -1.4180    -1.0830    -4.0260 c3         1 AD8      -0.056733
     13 CAC         -2.3110    -1.3620    -5.2360 c3         1 AD8      -0.064033
     14 CAB         -3.6910    -0.7450    -5.0050 c3         1 AD8      -0.069733
     15 CAH         -2.4530    -2.8740    -5.4270 c3         1 AD8      -0.069733
     16 CAJ         -3.0830    -3.4880    -4.1750 c3         1 AD8      -0.064033
     17 CAG         -4.4630    -2.8710    -3.9440 c3         1 AD8      -0.069733
     18 CAA         -4.3210    -1.3600    -3.7540 c3         1 AD8      -0.064033
     19 HAQ          1.9820    -0.0030    -0.8800 h5         1 AD8       0.061100
     20 HAO          0.7490     0.0020     3.1440 h4         1 AD8       0.040100
     21 HAN         -1.4270     0.0090     1.6670 h4         1 AD8       0.171000
     22 HA          -0.3720     0.5100    -1.9960 h1         1 AD8       0.083200
     23 HAA         -1.7960     0.5110    -0.9460 h1         1 AD8       0.083200
     24 HAF         -3.8740    -1.5150    -1.6570 hc         1 AD8       0.048033
     25 HAFA        -3.3280    -0.0100    -2.4090 hc         1 AD8       0.048033
     26 HAI         -1.2120    -3.6460    -3.1290 hc         1 AD8       0.048033
     27 HAIA        -2.6360    -3.6440    -2.0790 hc         1 AD8       0.048033
     28 HAD         -0.4400    -1.5200    -4.1900 hc         1 AD8       0.048033
     29 HADA        -1.3170    -0.0130    -3.8920 hc         1 AD8       0.048033
     30 HAC         -1.8640    -0.9270    -6.1220 hc         1 AD8       0.053700
     31 HAB         -3.5910     0.3250    -4.8700 hc         1 AD8       0.044200
     32 HABA        -4.3230    -0.9430    -5.8630 hc         1 AD8       0.044200
     33 HAH         -3.0860    -3.0720    -6.2840 hc         1 AD8       0.044200
     34 HAHA        -1.4760    -3.3110    -5.5920 hc         1 AD8       0.044200
     35 HAJ         -3.1840    -4.5590    -4.3100 hc         1 AD8       0.053700
     36 HAG         -4.9100    -3.3060    -3.0580 hc         1 AD8       0.044200
     37 HAGA        -5.0950    -3.0690    -4.8010 hc         1 AD8       0.044200
     38 HAAA        -5.2990    -0.9230    -3.5900 hc         1 AD8       0.053700
@<TRIPOS>BOND
     1     2     1 1
     2     5     1 1
     3     1     6 1
     4     3     2 2
     5     2    19 1
     6     3     4 1
     7     4     5 2
     8     4    20 1
     9     5    21 1
    10     6     7 1
    11     6    22 1
    12     6    23 1
    13     8     7 2
    14     7     9 1
    15    10     9 1
    16     9    11 1
    17     9    12 1
    18    10    18 1
    19    10    24 1
    20    10    25 1
    21    11    16 1
    22    11    26 1
    23    11    27 1
    24    12    13 1
    25    12    28 1
    26    12    29 1
    27    14    13 1
    28    13    15 1
    29    13    30 1
    30    18    14 1
    31    14    31 1
    32    14    32 1
    33    16    15 1
    34    15    33 1
    35    15    34 1
    36    17    16 1
    37    16    35 1
    38    18    17 1
    39    17    36 1
    40    17    37 1
    41    18    38 1
@<TRIPOS>SUBSTRUCTURE
     1 AD8         1 TEMP              0 ****  ****    0 ROOT
