@<TRIPOS>MOLECULE
molecule
   35    37     1     0     0
SMALL
bcc


@<TRIPOS>ATOM
      1 C1           0.0000     0.0000     0.0000 ca         1 ADB       0.105100
      2 O7          -0.6810     0.0000    -1.1770 os         1 ADB      -0.280400
      3 C2           1.3870     0.0000     0.0000 ca         1 ADB       0.045400
      4 Cl2          2.2560    -0.0010    -1.5030 cl         1 ADB      -0.080400
      5 C3           2.0770     0.0000     1.1980 ca         1 ADB      -0.115500
      6 C4           1.3860     0.0010     2.3950 ca         1 ADB      -0.105000
      7 C5           0.0040     0.0010     2.3980 ca         1 ADB      -0.115500
      8 C6          -0.6910     0.0070     1.2030 ca         1 ADB       0.045400
      9 Cl6         -2.4280     0.0090     1.2070 cl         1 ADB      -0.080400
     10 C8          -0.8770    -1.2950    -1.5150 ca         1 ADB       0.964300
     11 N1          -1.5240    -1.5980    -2.6330 nb         1 ADB      -0.853000
     12 C9          -1.7180    -2.8710    -2.9650 ca         1 ADB       0.999900
     13 N5          -2.3930    -3.1850    -4.1290 nu         1 ADB      -0.744300
     14 N2          -1.2650    -3.8380    -2.1780 nb         1 ADB      -0.876000
     15 C10         -0.6170    -3.5350    -1.0580 ca         1 ADB       1.027900
     16 N4          -0.1450    -4.5400    -0.2380 nv         1 ADB      -1.040500
     17 N3          -0.4280    -2.2630    -0.7250 nb         1 ADB      -0.893000
     18 C11         -2.4970    -4.5150    -4.5370 ca         1 ADB       0.177600
     19 C12         -1.4600    -5.4040    -4.2760 ca         1 ADB      -0.147500
     20 C13         -1.5600    -6.7160    -4.6770 ca         1 ADB      -0.073500
     21 C14         -2.7050    -7.1560    -5.3470 ca         1 ADB      -0.041000
     22 C15         -3.7450    -6.2610    -5.6080 ca         1 ADB      -0.073500
     23 C16         -3.6410    -4.9500    -5.1990 ca         1 ADB      -0.147500
     24 C17         -2.8110    -8.5220    -5.7650 cg         1 ADB       0.242800
     25 N6          -2.9140    -9.6010    -6.1040 n1         1 ADB      -0.367800
     26 H3           3.1600     0.0000     1.1990 ha         1 ADB       0.151500
     27 H4           1.9270     0.0010     3.3330 ha         1 ADB       0.145000
     28 H5          -0.5350     0.0020     3.3380 ha         1 ADB       0.151500
     29 HN5         -2.7250    -2.4550    -4.7280 hn         1 ADB       0.475800
     30 HN41        -0.7880    -5.1300     0.2500 hn         1 ADB       0.453300
     31 HN42         0.8410    -4.6710    -0.1240 hn         1 ADB       0.453300
     32 H12         -0.5730    -5.0630    -3.7560 ha         1 ADB       0.154000
     33 H13         -0.7510    -7.4070    -4.4730 ha         1 ADB       0.144500
     34 H15         -4.6330    -6.5990    -6.1270 ha         1 ADB       0.144500
     35 H16         -4.4490    -4.2570    -5.3970 ha         1 ADB       0.154000
@<TRIPOS>BOND
     1     1     2 1
     2     1     3 ar
     3     1     8 ar
     4     2    10 1
     5     3     4 1
     6     3     5 ar
     7     5     6 ar
     8     5    26 1
     9     6     7 ar
    10     6    27 1
    11     7     8 ar
    12     7    28 1
    13     8     9 1
    14    10    11 ar
    15    10    17 ar
    16    11    12 ar
    17    12    13 1
    18    12    14 ar
    19    13    18 1
    20    13    29 1
    21    14    15 ar
    22    15    16 1
    23    15    17 ar
    24    16    30 1
    25    16    31 1
    26    18    19 ar
    27    18    23 ar
    28    19    20 ar
    29    19    32 1
    30    20    21 ar
    31    20    33 1
    32    21    22 ar
    33    21    24 1
    34    22    23 ar
    35    22    34 1
    36    23    35 1
    37    24    25 3
@<TRIPOS>SUBSTRUCTURE
     1 ADB         1 TEMP              0 ****  ****    0 ROOT
