@<TRIPOS>MOLECULE
molecule
   28    30     1     0     0
SMALL
bcc


@<TRIPOS>ATOM
      1 C5'          0.0000     0.0000     0.0000 c2         1 ADC      -0.186200
      2 C4'          1.3060     0.0000     0.0000 c2         1 ADC      -0.182200
      3 C3'          1.8490     0.0000     1.4100 c3         1 ADC       0.142300
      4 O3'          2.9180    -0.9400     1.5310 oh         1 ADC      -0.602800
      5 C2'          0.6510    -0.4220     2.2940 c3         1 ADC       0.134100
      6 O2'          0.6530     0.2900     3.5330 oh         1 ADC      -0.589800
      7 C1'         -0.5440    -0.0010     1.4090 c3         1 ADC       0.086200
      8 N9          -1.6370    -0.9670     1.5340 na         1 ADC      -0.243000
      9 C8          -1.5690    -2.3000     1.2600 cc         1 ADC       0.414700
     10 N7          -2.7240    -2.8580     1.4810 nd         1 ADC      -0.584100
     11 C5          -3.6020    -1.9220     1.9140 ca         1 ADC      -0.214200
     12 C6          -4.9560    -1.9360     2.2880 ca         1 ADC       0.789200
     13 N6          -5.6840    -3.1120     2.2690 nv         1 ADC      -0.988500
     14 N1          -5.5200    -0.7940     2.6660 nb         1 ADC      -0.834000
     15 C2          -4.8330     0.3330     2.6870 ca         1 ADC       0.740900
     16 N3          -3.5640     0.3950     2.3400 nb         1 ADC      -0.792000
     17 C4          -2.9160    -0.6970     1.9480 ca         1 ADC       0.473800
     18 H5'         -0.5950     0.1330    -0.8950 ha         1 ADC       0.157000
     19 H4'          1.9190     0.0010    -0.8930 ha         1 ADC       0.151000
     20 H3'          2.1820     0.9940     1.6820 h1         1 ADC       0.067700
     21 HO3          3.7410    -0.5000     1.3930 ho         1 ADC       0.409000
     22 H2'          0.6510    -1.4930     2.4550 h1         1 ADC       0.071700
     23 HO2          1.0030    -0.2610     4.2120 ho         1 ADC       0.416000
     24 H1'         -0.8790     0.9920     1.6820 h1         1 ADC       0.121700
     25 H8          -0.6850    -2.8180     0.9090 h5         1 ADC       0.082800
     26 HN61        -6.6840    -3.0830     2.2990 hn         1 ADC       0.449800
     27 HN62        -5.2120    -3.9920     2.2050 hn         1 ADC       0.449800
     28 H2          -5.3310     1.2420     3.0030 h5         1 ADC       0.061100
@<TRIPOS>BOND
     1     1     2 2
     2     1     7 1
     3     1    18 1
     4     2     3 1
     5     2    19 1
     6     3     4 1
     7     3     5 1
     8     3    20 1
     9     4    21 1
    10     5     6 1
    11     5     7 1
    12     5    22 1
    13     6    23 1
    14     7     8 1
    15     7    24 1
    16     8     9 1
    17     8    17 1
    18     9    10 2
    19     9    25 1
    20    10    11 1
    21    11    12 ar
    22    11    17 ar
    23    12    13 1
    24    12    14 ar
    25    13    26 1
    26    13    27 1
    27    14    15 ar
    28    15    16 ar
    29    15    28 1
    30    16    17 ar
@<TRIPOS>SUBSTRUCTURE
     1 ADC         1 TEMP              0 ****  ****    0 ROOT
