@<TRIPOS>MOLECULE
ADF
   62    64     1     0     0
SMALL
bcc


@<TRIPOS>ATOM
      1 C1           0.0000     0.0000     0.0000 c          1 ADF       0.643100
      2 C2           1.5070     0.0000     0.0000 c3         1 ADF       0.041500
      3 C4           2.0540     0.0000     1.4500 c3         1 ADF      -0.050400
      4 C5           3.4640     0.6130     1.2880 c3         1 ADF      -0.041400
      5 C6           3.4080     1.4050    -0.0320 c3         1 ADF       0.103500
      6 C9           3.7220     2.8800     0.2320 c3         1 ADF       0.167400
      7 O3          -0.6060     1.0350    -0.1830 o          1 ADF      -0.722100
      8 N7           2.0360     1.2700    -0.5670 n7         1 ADF      -0.550200
      9 N8          -0.6740    -1.1490     0.2030 n          1 ADF      -0.172800
     10 C10          4.0540     4.8800    -0.7140 ca         1 ADF       0.082100
     11 O11          3.7740     3.5850    -1.0100 os         1 ADF      -0.277900
     12 C12         -2.1380    -1.2910     0.2340 c3         1 ADF       0.015700
     13 C13         -2.4480    -2.7850     0.4650 c3         1 ADF      -0.022400
     14 C14         -1.1480    -3.4890    -0.0040 c3         1 ADF      -0.023400
     15 C15         -0.0660    -2.4720     0.4370 c3         1 ADF       0.047000
     16 C16          4.1780     5.8130    -1.7380 ca         1 ADF      -0.139300
     17 C17          4.4630     7.1270    -1.4420 ca         1 ADF      -0.052000
     18 C18          4.6310     7.5210    -0.1110 ca         1 ADF      -0.119600
     19 C19          4.5120     6.5780     0.9150 ca         1 ADF      -0.030000
     20 C20          4.2270     5.2660     0.6100 ca         1 ADF      -0.259000
     21 C21         -2.7270    -0.4540     1.3710 c3         1 ADF      -0.045200
     22 N22         -2.2960     0.9430     1.2260 nz         1 ADF      -0.022600
     23 C23          4.9360     8.9270     0.2100 c          1 ADF       0.971200
     24 C24          3.9950     5.3860    -3.1700 c3         1 ADF       0.007300
     25 C25          4.1760     6.5970    -4.0900 c3         1 ADF      -0.002767
     26 C26          2.5900     4.8100    -3.3560 c3         1 ADF      -0.002767
     27 C27          5.0340     4.3200    -3.5220 c3         1 ADF      -0.002767
     28 O28          5.0990     9.3060     1.4930 o          1 ADF      -0.879300
     29 O29          5.0410     9.7450    -0.6820 o          1 ADF      -0.879300
     30 H2           1.8940    -0.8490    -0.5500 h1         1 ADF       0.066700
     31 H41          1.4390     0.6210     2.0890 hc         1 ADF       0.014700
     32 H42          2.1190    -1.0110     1.8330 hc         1 ADF       0.014700
     33 H51          3.6810     1.2780     2.1150 hc         1 ADF       0.034700
     34 H52          4.2080    -0.1720     1.2230 hc         1 ADF       0.034700
     35 H6           4.1190     0.9920    -0.7370 h1         1 ADF       0.058700
     36 H91          2.9480     3.3070     0.8580 h1         1 ADF       0.020200
     37 H92          4.6790     2.9610     0.7330 h1         1 ADF       0.020200
     38 HN7          1.4770     2.0370    -0.2480 hn         1 ADF       0.283800
     39 H12         -2.5540    -0.9740    -0.7150 h1         1 ADF       0.060700
     40 H131        -2.6290    -2.9790     1.5150 hc         1 ADF       0.039700
     41 H132        -3.2900    -3.0970    -0.1400 hc         1 ADF       0.039700
     42 H141        -1.1440    -3.6130    -1.0800 hc         1 ADF       0.045200
     43 H142        -1.0170    -4.4360     0.5040 hc         1 ADF       0.045200
     44 H151         0.8260    -2.5870    -0.1660 h1         1 ADF       0.039700
     45 H152         0.1620    -2.6000     1.4890 h1         1 ADF       0.039700
     46 H17          4.5570     7.8550    -2.2390 ha         1 ADF       0.143000
     47 H19          4.6440     6.8790     1.9470 ha         1 ADF       0.130000
     48 H20          4.1350     4.5340     1.4030 ha         1 ADF       0.102000
     49 H211        -2.3810    -0.8420     2.3210 hx         1 ADF       0.076700
     50 H212        -3.8080    -0.5040     1.3320 hx         1 ADF       0.076700
     51 H221        -1.3580     1.0400     1.5620 hn         1 ADF       0.258133
     52 H222        -2.9030     1.5360     1.7570 hn         1 ADF       0.258133
     53 H251         5.1710     7.0050    -3.9590 hc         1 ADF       0.005922
     54 H252         4.0440     6.2900    -5.1210 hc         1 ADF       0.005922
     55 H253         3.4400     7.3520    -3.8410 hc         1 ADF       0.005922
     56 H261         1.9020     5.3140    -2.6870 hc         1 ADF       0.005922
     57 H262         2.6010     3.7510    -3.1320 hc         1 ADF       0.005922
     58 H263         2.2710     4.9590    -4.3810 hc         1 ADF       0.005922
     59 H271         5.1970     4.3140    -4.5930 hc         1 ADF       0.005922
     60 H272         5.9660     4.5430    -3.0170 hc         1 ADF       0.005922
     61 H273         4.6750     3.3480    -3.2060 hc         1 ADF       0.005922
     62 H223        -2.3320     1.2050     0.2610 hn         1 ADF       0.258133
@<TRIPOS>BOND
     1     1     2 1   
     2     1     7 2   
     3     1     9 1   
     4     2     3 1   
     5     2     8 1   
     6     2    30 1   
     7     3     4 1   
     8     3    31 1   
     9     3    32 1   
    10     4     5 1   
    11     4    33 1   
    12     4    34 1   
    13     5     6 1   
    14     5     8 1   
    15     5    35 1   
    16     6    11 1   
    17     6    36 1   
    18     6    37 1   
    19     8    38 1   
    20     9    12 1   
    21     9    15 1   
    22    10    11 1   
    23    10    16 ar  
    24    10    20 ar  
    25    12    13 1   
    26    12    21 1   
    27    12    39 1   
    28    13    14 1   
    29    13    40 1   
    30    13    41 1   
    31    14    15 1   
    32    14    42 1   
    33    14    43 1   
    34    15    44 1   
    35    15    45 1   
    36    16    17 ar  
    37    16    24 1   
    38    17    18 ar  
    39    17    46 1   
    40    18    19 ar  
    41    18    23 1   
    42    19    20 ar  
    43    19    47 1   
    44    20    48 1   
    45    21    22 1   
    46    21    49 1   
    47    21    50 1   
    48    22    51 1   
    49    22    52 1   
    50    22    62 1   
    51    23    28 1   
    52    23    29 1   
    53    24    25 1   
    54    24    26 1   
    55    24    27 1   
    56    25    53 1   
    57    25    54 1   
    58    25    55 1   
    59    26    56 1   
    60    26    57 1   
    61    26    58 1   
    62    27    59 1   
    63    27    60 1   
    64    27    61 1   
@<TRIPOS>SUBSTRUCTURE
     1 ADF         1 TEMP              0 ****  ****    0 ROOT
