@<TRIPOS>MOLECULE
molecule
   25    25     1     0     0
SMALL
bcc


@<TRIPOS>ATOM
      1 C1           0.0000     0.0000     0.0000 c3         1 ADH       0.145700
      2 C2           1.5300     0.0000     0.0000 c3         1 ADH       0.117100
      3 C3           2.0180     0.0000     1.4490 c3         1 ADH       0.149100
      4 C4           1.6460     1.3410     2.0840 c3         1 ADH      -0.089200
      5 C5           0.2000     1.6510     1.8260 c2         1 ADH      -0.027400
      6 C6          -0.4600     2.7040     2.6770 c3         1 ADH       0.166600
      7 C7          -0.5130     1.0720     0.9160 c2         1 ADH      -0.269200
      8 N1          -0.4870    -1.3070     0.4580 nz         1 ADH      -0.802600
      9 O2           2.0120    -1.1680    -0.6690 oh         1 ADH      -0.615800
     10 O3           3.4360    -0.1700     1.4840 oh         1 ADH      -0.569800
     11 O6          -1.8240     2.8520     2.2800 oh         1 ADH      -0.619800
     12 H1          -0.3570     0.1890    -1.0050 hx         1 ADH       0.121700
     13 H2           1.8920     0.8880    -0.5030 h1         1 ADH       0.104700
     14 H3           1.5370    -0.8040     1.9930 h1         1 ADH       0.016700
     15 H41          1.8150     1.2900     3.1530 hc         1 ADH       0.095200
     16 H42          2.2620     2.1230     1.6560 hc         1 ADH       0.095200
     17 H61          0.0580     3.6470     2.5500 h1         1 ADH       0.059200
     18 H62         -0.4170     2.4060     3.7170 h1         1 ADH       0.059200
     19 H71         -1.5460     1.3790     0.8080 ha         1 ADH       0.187000
     20 HN12        -0.1280    -1.4950     1.3730 hn         1 ADH       0.456133
     21 HN22        -0.1770    -2.0190    -0.1740 hn         1 ADH       0.456133
     22 HO2          2.4700    -0.9140    -1.4530 ho         1 ADH       0.448000
     23 HO3          3.6660    -0.7490     2.1920 ho         1 ADH       0.428000
     24 HO6         -2.2340     3.5160     2.8080 ho         1 ADH       0.434000
     25 H13         -1.4870    -1.2990     0.4870 hn         1 ADH       0.456133
@<TRIPOS>BOND
     1     1     2 1
     2     1     7 1
     3     1     8 1
     4     1    12 1
     5     2     3 1
     6     2     9 1
     7     2    13 1
     8     3     4 1
     9     3    10 1
    10     3    14 1
    11     4     5 1
    12     4    15 1
    13     4    16 1
    14     5     6 1
    15     5     7 2
    16     6    11 1
    17     6    17 1
    18     6    18 1
    19     7    19 1
    20     8    20 1
    21     8    21 1
    22     9    22 1
    23    10    23 1
    24    11    24 1
    25    25     8 1
@<TRIPOS>SUBSTRUCTURE
     1 ADH         1 TEMP              0 ****  ****    0 ROOT
