@<TRIPOS>MOLECULE
molecule
   37    39     1     0     0
SMALL
bcc


@<TRIPOS>ATOM
      1 PB           0.0000     0.0000     0.0000 p5         1 ADI       1.188900
      2 O1B          1.4800     0.0000     0.0000 o          1 ADI      -0.833167
      3 O2B         -0.5360     0.0000     1.5180 o          1 ADI      -0.833167
      4 O3B         -0.5380    -1.3120    -0.7590 o          1 ADI      -0.833167
      5 PA           0.0360     1.2530    -2.2600 p5         1 ADI       1.248800
      6 O1A         -0.4600     0.0260    -2.9240 o          1 ADI      -0.801500
      7 O2A          1.6440     1.2300    -2.2240 o          1 ADI      -0.801500
      8 O3A         -0.5350     1.3160    -0.7580 os         1 ADI      -0.645800
      9 O5'         -0.4640     2.5450    -3.0800 os         1 ADI      -0.539200
     10 C5'          0.0720     2.4310    -4.3990 c3         1 ADI       0.170400
     11 C4'         -0.3670     3.6330    -5.2350 c3         1 ADI       0.135100
     12 O4'          0.2140     4.8540    -4.7210 os         1 ADI      -0.375600
     13 C3'          0.2000     3.5360    -6.6730 c3         1 ADI      -0.121400
     14 C2'          0.2150     5.0200    -7.1170 c3         1 ADI      -0.134400
     15 C1'          0.1930     5.8090    -5.7950 c3         1 ADI       0.248800
     16 N9           1.3700     6.6780    -5.7130 na         1 ADI      -0.246000
     17 C8           2.5790     6.3480    -5.1820 cc         1 ADI       0.431700
     18 N7           3.3970     7.3570    -5.2740 nd         1 ADI      -0.622100
     19 C5           2.7650     8.3940    -5.8730 ca         1 ADI      -0.195200
     20 C6           3.1300     9.7050    -6.2220 ca         1 ADI       0.699200
     21 N6           4.4050    10.1770    -5.9620 nv         1 ADI      -1.026500
     22 N1           2.2260    10.4790    -6.8120 nb         1 ADI      -0.823000
     23 C2           1.0090    10.0370    -7.0640 ca         1 ADI       0.635900
     24 N3           0.6200     8.8190    -6.7510 nb         1 ADI      -0.801000
     25 C4           1.4550     7.9730    -6.1580 ca         1 ADI       0.457800
     26 H5'1         1.1540     2.4030    -4.3480 h1         1 ADI       0.060700
     27 H5'2        -0.2920     1.5200    -4.8590 h1         1 ADI       0.060700
     28 H4'         -1.4470     3.7120    -5.2610 h1         1 ADI       0.044700
     29 H3'1         1.2040     3.1280    -6.6630 hc         1 ADI       0.053200
     30 H3'2        -0.4560     2.9520    -7.3060 hc         1 ADI       0.053200
     31 H2'1        -0.6660     5.2460    -7.7060 hc         1 ADI       0.044700
     32 H2'2         1.1180     5.2390    -7.6730 hc         1 ADI       0.044700
     33 H1'         -0.7120     6.4020    -5.7380 h2         1 ADI       0.068700
     34 H8           2.8240     5.3870    -4.7460 h5         1 ADI       0.107800
     35 HN61         4.5390    11.1300    -5.6850 hn         1 ADI       0.425300
     36 HN62         5.1910     9.5610    -6.0310 hn         1 ADI       0.425300
     37 H2           0.3030    10.7020    -7.5480 h5         1 ADI       0.026100
@<TRIPOS>BOND
     1     1     2 1
     2     1     3 1
     3     1     4 1
     4     1     8 1
     5     5     6 1
     6     5     7 1
     7     5     8 1
     8     5     9 1
     9     9    10 1
    10    10    11 1
    11    10    26 1
    12    10    27 1
    13    11    12 1
    14    11    13 1
    15    11    28 1
    16    12    15 1
    17    13    14 1
    18    13    29 1
    19    13    30 1
    20    14    15 1
    21    14    31 1
    22    14    32 1
    23    15    16 1
    24    15    33 1
    25    16    17 1
    26    16    25 1
    27    17    18 2
    28    17    34 1
    29    18    19 1
    30    19    20 ar
    31    19    25 ar
    32    20    21 1
    33    20    22 ar
    34    21    35 1
    35    21    36 1
    36    22    23 ar
    37    23    24 ar
    38    23    37 1
    39    24    25 ar
@<TRIPOS>SUBSTRUCTURE
     1 ADI         1 TEMP              0 ****  ****    0 ROOT
