@<TRIPOS>MOLECULE
molecule
   18    19     1     0     0
SMALL
bcc


@<TRIPOS>ATOM
      1 N9           0.0000     0.0000     0.0000 nc         1 ADK      -0.475300
      2 C4           1.3250     0.0000     0.0000 cd         1 ADK      -0.040300
      3 N3           2.2980     0.0000     0.9700 na         1 ADK      -0.134900
      4 C2           3.5930     0.0060     0.6150 cc         1 ADK       0.555400
      5 N1           3.9770     0.0170    -0.6340 nd         1 ADK      -0.768000
      6 C6           3.1000     0.0210    -1.6420 cc         1 ADK       0.811200
      7 N6           3.5370     0.0320    -2.9440 nv         1 ADK      -1.070500
      8 C5           1.7250     0.0150    -1.3540 cd         1 ADK      -0.094900
      9 N7           0.5980     0.0170    -2.0840 nd         1 ADK      -0.626100
     10 C8          -0.4260     0.0080    -1.2580 cc         1 ADK       0.595200
     11 C3A          1.9230    -0.0110     2.3870 c3         1 ADK       0.006600
     12 HC2          4.3470     0.0030     1.3930 h5         1 ADK       0.060100
     13 HN61         3.7890     0.8970    -3.3800 hn         1 ADK       0.450800
     14 HN62         3.6270    -0.8280    -3.4480 hn         1 ADK       0.450800
     15 H8          -1.4670     0.0070    -1.5600 h5         1 ADK       0.074800
     16 H3A1         1.7750     1.0060     2.7300 h1         1 ADK       0.068367
     17 H3A2         1.0050    -0.5720     2.5140 h1         1 ADK       0.068367
     18 H3A3         2.7130    -0.4750     2.9660 h1         1 ADK       0.068367
@<TRIPOS>BOND
     1     1     2 2
     2     1    10 1
     3     2     3 1
     4     2     8 1
     5     3     4 1
     6     3    11 1
     7     4     5 2
     8     4    12 1
     9     5     6 1
    10     6     7 1
    11     6     8 2
    12     7    13 1
    13     7    14 1
    14     8     9 1
    15     9    10 2
    16    10    15 1
    17    11    16 1
    18    11    17 1
    19    11    18 1
@<TRIPOS>SUBSTRUCTURE
     1 ADK         1 TEMP              0 ****  ****    0 ROOT
