@<TRIPOS>MOLECULE
molecule
   32    34     1     0     0
SMALL
bcc


@<TRIPOS>ATOM
      1 C1           0.0000     0.0000     0.0000 ca         1 ADL      -0.085000
      2 C2           1.3820     0.0000     0.0000 ca         1 ADL      -0.179000
      3 C3           2.0880     0.0000     1.1910 ca         1 ADL      -0.005300
      4 C4           1.3830    -0.0070     2.3920 ca         1 ADL      -0.173600
      5 C5          -0.0170    -0.0030     2.3930 ca         1 ADL       0.172100
      6 C6          -0.7030     0.0010     1.1870 ca         1 ADL      -0.228000
      7 C7           2.1220    -0.0300     3.6730 c          1 ADL       0.586300
      8 C8           3.5440    -0.4220     3.6400 ca         1 ADL      -0.192600
      9 C9           4.2350    -0.4110     2.4290 ca         1 ADL      -0.071300
     10 C10          3.5860     0.0110     1.1450 c3         1 ADL       0.012200
     11 C11          4.1910    -0.8100     4.8190 ca         1 ADL       0.170100
     12 C12          5.5270    -1.1800     4.7810 ca         1 ADL      -0.035300
     13 C13          6.2030    -1.1750     3.5770 ca         1 ADL      -0.086000
     14 C14          5.5650    -0.7930     2.4120 ca         1 ADL      -0.155000
     15 C15          6.2350    -1.5940     6.0450 c3         1 ADL      -0.149100
     16 C16          6.8580    -0.3840     6.6900 c          1 ADL       0.899600
     17 O1          -0.7000    -0.0030     3.5660 oh         1 ADL      -0.477100
     18 O2           1.5740     0.2630     4.7190 o          1 ADL      -0.493100
     19 O3           3.5150    -0.8160     5.9970 oh         1 ADL      -0.482100
     20 O5           6.7390     0.7030     6.1760 o          1 ADL      -0.839800
     21 O4           7.5450    -0.5140     7.8360 o          1 ADL      -0.839800
     22 HC1         -0.5360    -0.0000    -0.9410 ha         1 ADL       0.121000
     23 HC2          1.9190    -0.0000    -0.9410 ha         1 ADL       0.127000
     24 HC6         -1.7820     0.0960     1.1780 ha         1 ADL       0.126000
     25 H101         3.9060     1.0230     0.9280 hc         1 ADL       0.062700
     26 H102         3.9010    -0.6770     0.3710 hc         1 ADL       0.062700
     27 HC13         7.2460    -1.4640     3.5460 ha         1 ADL       0.135000
     28 HC14         6.1100    -0.7950     1.4760 ha         1 ADL       0.113000
     29 H151         5.5220    -2.0410     6.7280 hc         1 ADL       0.041700
     30 H152         7.0070    -2.3150     5.8060 hc         1 ADL       0.041700
     31 HO1         -1.4320     0.5880     3.5030 ho         1 ADL       0.416000
     32 HO3          3.0730    -1.6420     6.1010 ho         1 ADL       0.406000
@<TRIPOS>BOND
     1     1     2 ar
     2     1     6 ar
     3     1    22 1
     4     2     3 ar
     5     2    23 1
     6     3     4 ar
     7     3    10 1
     8     4     5 ar
     9     4     7 1
    10     5     6 ar
    11     5    17 1
    12     6    24 1
    13     7     8 1
    14     7    18 2
    15     8     9 ar
    16     8    11 ar
    17     9    10 1
    18     9    14 ar
    19    10    25 1
    20    10    26 1
    21    11    12 ar
    22    11    19 1
    23    12    13 ar
    24    12    15 1
    25    13    14 ar
    26    13    27 1
    27    14    28 1
    28    15    16 1
    29    15    29 1
    30    15    30 1
    31    16    20 1
    32    16    21 1
    33    17    31 1
    34    19    32 1
@<TRIPOS>SUBSTRUCTURE
     1 ADL         1 TEMP              0 ****  ****    0 ROOT
