@<TRIPOS>MOLECULE
ADL
   32    34     1     0     0
SMALL
bcc


@<TRIPOS>ATOM
      1 C1          0.0510   -0.0880   -0.0950 ca        1 ADL     -0.072000
      2 C2          1.4210    0.1350    0.0050 ca        1 ADL     -0.189000
      3 C3          2.0460    0.1480    1.2580 ca        1 ADL      0.009700
      4 C4          1.2990   -0.0510    2.4270 ca        1 ADL     -0.177600
      5 C5         -0.0870   -0.2880    2.3070 ca        1 ADL      0.176100
      6 C6         -0.7110   -0.3050    1.0490 ca        1 ADL     -0.248000
      7 C7          1.9610   -0.0140    3.7520 c         1 ADL      0.614300
      8 C8          3.4010   -0.2980    3.7640 ca        1 ADL     -0.262600
      9 C9          4.1460   -0.1310    2.5770 ca        1 ADL     -0.046300
     10 C10         3.5090    0.3970    1.3400 c3        1 ADL     -0.001800
     11 C11         4.0720   -0.7390    4.9240 ca        1 ADL      0.179100
     12 C12         5.4620   -1.0390    4.9060 ca        1 ADL     -0.052300
     13 C13         6.1530   -0.8770    3.7090 ca        1 ADL     -0.071000
     14 C14         5.5040   -0.4220    2.5570 ca        1 ADL     -0.181000
     15 C15         6.1450   -1.5220    6.1300 c3        1 ADL     -0.167100
     16 C16         7.6280   -1.1030    6.2420 c         1 ADL      0.913600
     17 O1         -0.7930   -0.5180    3.4610 oh        1 ADL     -0.461100
     18 O2          1.3080    0.2450    4.7780 o         1 ADL     -0.567100
     19 O3          3.4460   -0.9570    6.1240 oh        1 ADL     -0.500100
     20 O5          8.4480   -1.5380    5.3800 o         1 ADL     -0.842300
     21 O4          7.9550   -0.3730    7.2170 o         1 ADL     -0.842300
     22 HC1        -0.4340   -0.0980   -1.0820 ha        1 ADL      0.125000
     23 HC2         2.0200    0.2970   -0.9020 ha        1 ADL      0.132000
     24 HC6        -1.7910   -0.4890    0.9740 ha        1 ADL      0.128000
     25 H101        4.0150   -0.0460    0.4380 hc        1 ADL      0.063200
     26 H102        3.6810    1.5110    1.2980 hc        1 ADL      0.063200
     27 HC13        7.2400   -1.1040    3.6970 ha        1 ADL      0.206000
     28 HC14        6.0810   -0.2900    1.6310 ha        1 ADL      0.120000
     29 H151        5.6020   -1.1520    7.0400 hc        1 ADL      0.051200
     30 H152        6.1100   -2.6430    6.1380 hc        1 ADL      0.051200
     31 HO1        -1.7220   -0.6500    3.2190 ho        1 ADL      0.409000
     32 HO3         2.5800   -0.5230    6.1260 ho        1 ADL      0.440000
@<TRIPOS>BOND
     1    1    2 ar  
     2    1    6 ar  
     3    1   22 1   
     4    2    3 ar  
     5    2   23 1   
     6    3    4 ar  
     7    3   10 1   
     8    4    5 ar  
     9    4    7 1   
    10    5    6 ar  
    11    5   17 1   
    12    6   24 1   
    13    7    8 1   
    14    7   18 2   
    15    8    9 ar  
    16    8   11 ar  
    17    9   10 1   
    18    9   14 ar  
    19   10   25 1   
    20   10   26 1   
    21   11   12 ar  
    22   11   19 1   
    23   12   13 ar  
    24   12   15 1   
    25   13   14 ar  
    26   13   27 1   
    27   14   28 1   
    28   15   16 1   
    29   15   29 1   
    30   15   30 1   
    31   16   20 1   
    32   16   21 1   
    33   17   31 1   
    34   19   32 1   
@<TRIPOS>SUBSTRUCTURE
     1 ADL         1 TEMP              0 ****  ****    0 ROOT
