@<TRIPOS>MOLECULE
ADM
   26    28     1     0     0
SMALL
bcc


@<TRIPOS>ATOM
      1 C1          0.0010   -0.0010    0.0020 c3        1 ADM     -0.061700
      2 C2          1.5270    0.0000    0.0040 c3        1 ADM     -0.068400
      3 C3          2.0370    0.0010    1.4420 c3        1 ADM     -0.061700
      4 C4          1.5270   -1.2450    2.1610 c3        1 ADM     -0.068400
      5 C5          0.0010   -1.2470    2.1620 c3        1 ADM     -0.061700
      6 C6         -0.5070    0.0000    2.8800 c3        1 ADM     -0.068400
      7 C7          0.0010    1.2470    2.1610 c3        1 ADM     -0.061700
      8 C8         -0.5070    1.2450    0.7220 c3        1 ADM     -0.068400
      9 C9         -0.5060   -1.2460    0.7230 c3        1 ADM     -0.068400
     10 C10         1.5260    1.2460    2.1600 c3        1 ADM     -0.068400
     11 H1         -0.3730   -0.0010   -1.0560 hc        1 ADM      0.046700
     12 H21         1.9060    0.9060   -0.5340 hc        1 ADM      0.039700
     13 H22         1.9070   -0.9060   -0.5330 hc        1 ADM      0.039700
     14 H3          3.1590    0.0010    1.4420 hc        1 ADM      0.046700
     15 H41         1.9070   -1.2570    3.2140 hc        1 ADM      0.039700
     16 H42         1.9070   -2.1630    1.6450 hc        1 ADM      0.039700
     17 H5         -0.3720   -2.1630    2.6910 hc        1 ADM      0.046700
     18 H61        -0.1470    0.0000    3.9400 hc        1 ADM      0.039700
     19 H62        -1.6270   -0.0000    2.8940 hc        1 ADM      0.039700
     20 H7         -0.3740    2.1630    2.6900 hc        1 ADM      0.046700
     21 H81        -1.6270    1.2570    0.7150 hc        1 ADM      0.039700
     22 H82        -0.1480    2.1630    0.1920 hc        1 ADM      0.039700
     23 H91        -0.1460   -2.1640    0.1930 hc        1 ADM      0.039700
     24 H92        -1.6260   -1.2580    0.7160 hc        1 ADM      0.039700
     25 H101        1.9060    2.1640    1.6440 hc        1 ADM      0.039700
     26 H102        1.9060    1.2590    3.2140 hc        1 ADM      0.039700
@<TRIPOS>BOND
     1    1    2 1   
     2    1    8 1   
     3    1    9 1   
     4    1   11 1   
     5    2    3 1   
     6    2   12 1   
     7    2   13 1   
     8    3    4 1   
     9    3   10 1   
    10    3   14 1   
    11    4    5 1   
    12    4   15 1   
    13    4   16 1   
    14    5    6 1   
    15    5    9 1   
    16    5   17 1   
    17    6    7 1   
    18    6   18 1   
    19    6   19 1   
    20    7    8 1   
    21    7   10 1   
    22    7   20 1   
    23    8   21 1   
    24    8   22 1   
    25    9   23 1   
    26    9   24 1   
    27   10   25 1   
    28   10   26 1   
@<TRIPOS>SUBSTRUCTURE
     1 ADM         1 TEMP              0 ****  ****    0 ROOT
