@<TRIPOS>MOLECULE
molecule
   26    28     1     0     0
SMALL
bcc


@<TRIPOS>ATOM
      1 C1           0.0000     0.0000     0.0000 c3         1 ADM      -0.064700
      2 C2           1.5290     0.0000     0.0000 c3         1 ADM      -0.067400
      3 C3           2.0390     0.0000     1.4420 c3         1 ADM      -0.064700
      4 C4           1.5310    -1.2480     2.1630 c3         1 ADM      -0.067400
      5 C5           0.0000    -1.2490     2.1630 c3         1 ADM      -0.064700
      6 C6          -0.5090    -0.0000     2.8830 c3         1 ADM      -0.067400
      7 C7          -0.0010     1.2490     2.1620 c3         1 ADM      -0.064700
      8 C8          -0.5100     1.2480     0.7200 c3         1 ADM      -0.067400
      9 C9          -0.5090    -1.2500     0.7210 c3         1 ADM      -0.067400
     10 C10          1.5300     1.2500     2.1630 c3         1 ADM      -0.067400
     11 H1          -0.3610    -0.0000    -1.0210 hc         1 ADM       0.045700
     12 H21          1.8900    -0.8840    -0.5110 hc         1 ADM       0.039700
     13 H22          1.8900     0.8840    -0.5110 hc         1 ADM       0.039700
     14 H3           3.1230     0.0000     1.4410 hc         1 ADM       0.045700
     15 H41          1.8920    -2.1330     1.6530 hc         1 ADM       0.039700
     16 H42          1.8910    -1.2470     3.1850 hc         1 ADM       0.039700
     17 H5          -0.3610    -2.1330     2.6740 hc         1 ADM       0.045700
     18 H61         -0.1470     0.0000     3.9040 hc         1 ADM       0.039700
     19 H62         -1.5930    -0.0000     2.8840 hc         1 ADM       0.039700
     20 H7          -0.3630     2.1330     2.6730 hc         1 ADM       0.045700
     21 H81         -1.5940     1.2480     0.7200 hc         1 ADM       0.039700
     22 H82         -0.1500     2.1330     0.2090 hc         1 ADM       0.039700
     23 H91         -0.1480    -2.1340     0.2100 hc         1 ADM       0.039700
     24 H92         -1.5930    -1.2500     0.7200 hc         1 ADM       0.039700
     25 H101         1.8900     1.2500     3.1840 hc         1 ADM       0.039700
     26 H102         1.8910     2.1340     1.6520 hc         1 ADM       0.039700
@<TRIPOS>BOND
     1     1     2 1
     2     1     8 1
     3     1     9 1
     4     1    11 1
     5     2     3 1
     6     2    12 1
     7     2    13 1
     8     3     4 1
     9     3    10 1
    10     3    14 1
    11     4     5 1
    12     4    15 1
    13     4    16 1
    14     5     6 1
    15     5     9 1
    16     5    17 1
    17     6     7 1
    18     6    18 1
    19     6    19 1
    20     7     8 1
    21     7    10 1
    22     7    20 1
    23     8    21 1
    24     8    22 1
    25     9    23 1
    26     9    24 1
    27    10    25 1
    28    10    26 1
@<TRIPOS>SUBSTRUCTURE
     1 ADM         1 TEMP              0 ****  ****    0 ROOT
