@<TRIPOS>MOLECULE
molecule
   32    34     1     0     0
SMALL
bcc


@<TRIPOS>ATOM
      1 O5'          0.0000     0.0000     0.0000 oh         1 ADN      -0.591800
      2 C5'          1.4290     0.0000     0.0000 c3         1 ADN       0.147400
      3 C4'          1.9390     0.0000     1.4420 c3         1 ADN       0.128100
      4 O4'          1.4970    -1.1890     2.1320 os         1 ADN      -0.396600
      5 C3'          3.4810    -0.0790     1.4700 c3         1 ADN       0.089100
      6 O3'          4.0460     1.2210     1.6490 oh         1 ADN      -0.568800
      7 C2'          3.7890    -0.9790     2.6900 c3         1 ADN       0.092100
      8 O2'          4.5570    -0.2610     3.6590 oh         1 ADN      -0.559800
      9 C1'          2.3970    -1.3380     3.2510 c3         1 ADN       0.253800
     10 N9           2.3840    -2.7180     3.7370 na         1 ADN      -0.253000
     11 C8           2.0930    -3.8290     3.0020 cc         1 ADN       0.428700
     12 N7           2.1750    -4.8910     3.7490 nd         1 ADN      -0.589100
     13 C5           2.5290    -4.5310     5.0070 ca         1 ADN      -0.213200
     14 C6           2.7520    -5.2260     6.2080 ca         1 ADN       0.788200
     15 N6           2.6320    -6.6030     6.2620 nv         1 ADN      -0.983500
     16 N1           3.0890    -4.5310     7.2880 nb         1 ADN      -0.837000
     17 C2           3.2060    -3.2160     7.2460 ca         1 ADN       0.741900
     18 N3           3.0000    -2.5220     6.1460 nb         1 ADN      -0.788000
     19 C4           2.6610    -3.1330     5.0150 ca         1 ADN       0.478800
     20 HO5'        -0.3140     0.2200    -0.8610 ho         1 ADN       0.404000
     21 H5'1         1.7900    -0.8840    -0.5110 h1         1 ADN       0.030200
     22 H5'2         1.7900     0.8850    -0.5110 h1         1 ADN       0.030200
     23 H4'          1.6000     0.8850     1.9670 h1         1 ADN       0.089700
     24 H3'          3.8500    -0.5380     0.5610 h1         1 ADN       0.046700
     25 HO3'         4.6250     1.4140     0.9300 ho         1 ADN       0.402000
     26 H2'          4.3100    -1.8750     2.3740 h1         1 ADN       0.056700
     27 HO2'         5.4540    -0.5520     3.6270 ho         1 ADN       0.408000
     28 H1'          2.1240    -0.6520     4.0440 h2         1 ADN       0.114700
     29 H8           1.8300    -3.8280     1.9510 h5         1 ADN       0.086800
     30 HN61         2.7960    -7.0860     7.1230 hn         1 ADN       0.450300
     31 HN62         2.3820    -7.1160     5.4400 hn         1 ADN       0.450300
     32 H2           3.4830    -2.6880     8.1500 h5         1 ADN       0.062100
@<TRIPOS>BOND
     1     1     2 1
     2     1    20 1
     3     2     3 1
     4     2    21 1
     5     2    22 1
     6     3     4 1
     7     3     5 1
     8     3    23 1
     9     4     9 1
    10     5     6 1
    11     5     7 1
    12     5    24 1
    13     6    25 1
    14     7     8 1
    15     7     9 1
    16     7    26 1
    17     8    27 1
    18     9    10 1
    19     9    28 1
    20    10    11 1
    21    10    19 1
    22    11    12 2
    23    11    29 1
    24    12    13 1
    25    13    14 ar
    26    13    19 ar
    27    14    15 1
    28    14    16 ar
    29    15    30 1
    30    15    31 1
    31    16    17 ar
    32    17    18 ar
    33    17    32 1
    34    18    19 ar
@<TRIPOS>SUBSTRUCTURE
     1 ADN         1 TEMP              0 ****  ****    0 ROOT
