@<TRIPOS>MOLECULE
molecule
   25    27     1     0     0
SMALL
bcc


@<TRIPOS>ATOM
      1 C1           0.0000     0.0000     0.0000 c3         1 ADO      -0.164200
      2 C2           1.5200     0.0000     0.0000 c          1 ADO       0.578100
      3 C3           2.1610     0.0000     1.3800 c3         1 ADO      -0.164200
      4 C4           1.6630    -1.2410     2.1190 c3         1 ADO      -0.063400
      5 C5           0.1360    -1.2360     2.1750 c3         1 ADO      -0.071700
      6 C6          -0.3420     0.0120     2.9230 c3         1 ADO      -0.069400
      7 C7           0.1360     1.2520     2.1660 c3         1 ADO      -0.071700
      8 C8          -0.4580     1.2510     0.7580 c3         1 ADO      -0.063400
      9 C9          -0.4570    -1.2460     0.7680 c3         1 ADO      -0.063400
     10 C10          1.6620     1.2580     2.1100 c3         1 ADO      -0.063400
     11 O2           2.1700    -0.0040    -1.0180 o          1 ADO      -0.520100
     12 H1          -0.3870    -0.0040    -1.0120 hc         1 ADO       0.078200
     13 H3           3.2420    -0.0010     1.3040 hc         1 ADO       0.078200
     14 H41          2.0010    -2.1290     1.6000 hc         1 ADO       0.048200
     15 H42          2.0600    -1.2410     3.1280 hc         1 ADO       0.048200
     16 H5          -0.2010    -2.1170     2.7070 hc         1 ADO       0.052700
     17 H61          0.0700     0.0160     3.9250 hc         1 ADO       0.044700
     18 H62         -1.4240     0.0120     2.9750 hc         1 ADO       0.044700
     19 H7          -0.2010     2.1370     2.6910 hc         1 ADO       0.052700
     20 H81         -1.5390     1.2560     0.8240 hc         1 ADO       0.048200
     21 H82         -0.1250     2.1350     0.2270 hc         1 ADO       0.048200
     22 H91         -0.1240    -2.1340     0.2440 hc         1 ADO       0.048200
     23 H92         -1.5380    -1.2520     0.8340 hc         1 ADO       0.048200
     24 H101         2.0590     1.2700     3.1180 hc         1 ADO       0.048200
     25 H102         2.0000     2.1400     1.5800 hc         1 ADO       0.048200
@<TRIPOS>BOND
     1     1     2 1
     2     1     8 1
     3     1     9 1
     4     1    12 1
     5     2     3 1
     6     2    11 2
     7     3     4 1
     8     3    10 1
     9     3    13 1
    10     4     5 1
    11     4    14 1
    12     4    15 1
    13     5     6 1
    14     5     9 1
    15     5    16 1
    16     6     7 1
    17     6    17 1
    18     6    18 1
    19     7     8 1
    20     7    10 1
    21     7    19 1
    22     8    20 1
    23     8    21 1
    24     9    22 1
    25     9    23 1
    26    10    24 1
    27    10    25 1
@<TRIPOS>SUBSTRUCTURE
     1 ADO         1 TEMP              0 ****  ****    0 ROOT
