@<TRIPOS>MOLECULE
ADO
   25    27     1     0     0
SMALL
bcc


@<TRIPOS>ATOM
      1 C1          0.0150   -0.0010    0.0190 c3        1 ADO     -0.162700
      2 C2          1.5300   -0.0010   -0.0150 c         1 ADO      0.579100
      3 C3          2.1380    0.0050    1.3730 c3        1 ADO     -0.162700
      4 C4          1.6560   -1.2400    2.1130 c3        1 ADO     -0.066400
      5 C5          0.1310   -1.2390    2.1840 c3        1 ADO     -0.067700
      6 C6         -0.3410    0.0110    2.9200 c3        1 ADO     -0.071400
      7 C7          0.1310    1.2550    2.1740 c3        1 ADO     -0.067700
      8 C8         -0.4480    1.2500    0.7620 c3        1 ADO     -0.066400
      9 C9         -0.4470   -1.2460    0.7720 c3        1 ADO     -0.066400
     10 C10         1.6550    1.2560    2.1020 c3        1 ADO     -0.066400
     11 O2          2.1910   -0.0050   -1.0530 o         1 ADO     -0.526100
     12 H1         -0.3970   -0.0050   -1.0240 hc        1 ADO      0.076700
     13 H3          3.2580    0.0050    1.3050 hc        1 ADO      0.076700
     14 H41         2.0850   -1.2480    3.1470 hc        1 ADO      0.049700
     15 H42         2.0130   -2.1600    1.5830 hc        1 ADO      0.049700
     16 H5         -0.2170   -2.1530    2.7340 hc        1 ADO      0.055700
     17 H61        -1.4590    0.0110    2.9880 hc        1 ADO      0.043700
     18 H62         0.0690    0.0150    3.9620 hc        1 ADO      0.043700
     19 H7         -0.2170    2.1740    2.7160 hc        1 ADO      0.055700
     20 H81        -1.5660    1.2620    0.8080 hc        1 ADO      0.049700
     21 H82        -0.1140    2.1660    0.2090 hc        1 ADO      0.049700
     22 H91        -0.1140   -2.1660    0.2270 hc        1 ADO      0.049700
     23 H92        -1.5660   -1.2580    0.8190 hc        1 ADO      0.049700
     24 H101        2.0120    2.1710    1.5650 hc        1 ADO      0.049700
     25 H102        2.0850    1.2720    3.1360 hc        1 ADO      0.049700
@<TRIPOS>BOND
     1    1    2 1   
     2    1    8 1   
     3    1    9 1   
     4    1   12 1   
     5    2    3 1   
     6    2   11 2   
     7    3    4 1   
     8    3   10 1   
     9    3   13 1   
    10    4    5 1   
    11    4   14 1   
    12    4   15 1   
    13    5    6 1   
    14    5    9 1   
    15    5   16 1   
    16    6    7 1   
    17    6   17 1   
    18    6   18 1   
    19    7    8 1   
    20    7   10 1   
    21    7   19 1   
    22    8   20 1   
    23    8   21 1   
    24    9   22 1   
    25    9   23 1   
    26   10   24 1   
    27   10   25 1   
@<TRIPOS>SUBSTRUCTURE
     1 ADO         1 TEMP              0 ****  ****    0 ROOT
