@<TRIPOS>MOLECULE
molecule
   39    41     1     0     0
SMALL
bcc


@<TRIPOS>ATOM
      1 PB           0.0000     0.0000     0.0000 p5         1 ADP       1.190900
      2 O1B          1.4790     0.0000     0.0000 o          1 ADP      -0.833833
      3 O2B         -0.5370     0.0000     1.5180 o          1 ADP      -0.833833
      4 O3B         -0.5370    -1.3130    -0.7590 o          1 ADP      -0.833833
      5 PA           0.0350     1.2530    -2.2600 p5         1 ADP       1.248800
      6 O1A          1.5140     1.2320    -2.2270 o          1 ADP      -0.800000
      7 O2A         -0.5030    -0.0820    -2.9820 o          1 ADP      -0.800000
      8 O3A         -0.5360     1.3160    -0.7580 os         1 ADP      -0.644800
      9 O5'         -0.4640     2.5450    -3.0800 os         1 ADP      -0.534200
     10 C5'          0.0720     2.4300    -4.4000 c3         1 ADP       0.170400
     11 C4'         -0.3670     3.6320    -5.2350 c3         1 ADP       0.128100
     12 O4'          0.1360     4.8580    -4.6580 os         1 ADP      -0.371600
     13 C3'          0.2640     3.5730    -6.6440 c3         1 ADP       0.086100
     14 O3'         -0.6650     3.0330    -7.5860 oh         1 ADP      -0.584800
     15 C2'          0.5800     5.0490    -6.9780 c3         1 ADP       0.076100
     16 O2'         -0.1420     5.4660    -8.1390 oh         1 ADP      -0.576800
     17 C1'          0.1060     5.8240    -5.7300 c3         1 ADP       0.246800
     18 N9           1.0150     6.9350    -5.4410 na         1 ADP      -0.247000
     19 C8           2.1360     6.8780    -4.6670 cc         1 ADP       0.418700
     20 N7           2.7080     8.0460    -4.6250 nd         1 ADP      -0.622100
     21 C5           1.9950     8.9230    -5.3740 ca         1 ADP      -0.219200
     22 C6           2.1220    10.2880    -5.6830 ca         1 ADP       0.717200
     23 N6           3.1780    11.0320    -5.1870 nv         1 ADP      -1.011500
     24 N1           1.2060    10.8460    -6.4680 nb         1 ADP      -0.842000
     25 C2           0.1960    10.1440    -6.9460 ca         1 ADP       0.640900
     26 N3           0.0340     8.8660    -6.6770 nb         1 ADP      -0.789000
     27 C4           0.8990     8.2220    -5.9010 ca         1 ADP       0.469800
     28 H5'1         1.1540     2.4020    -4.3490 h1         1 ADP       0.059700
     29 H5'2        -0.2920     1.5190    -4.8600 h1         1 ADP       0.059700
     30 H4'         -1.4470     3.6710    -5.3110 h1         1 ADP       0.070700
     31 H3'          1.1760     2.9880    -6.6240 h1         1 ADP       0.057700
     32 HO3'        -0.2580     2.3240    -8.0570 ho         1 ADP       0.390000
     33 H2'          1.6460     5.1830    -7.1200 h1         1 ADP       0.042700
     34 HO2'         0.4460     5.5110    -8.8750 ho         1 ADP       0.385000
     35 H1'         -0.9040     6.1870    -5.8770 h2         1 ADP       0.093700
     36 H8           2.4970     5.9910    -4.1600 h5         1 ADP       0.104800
     37 HN61         3.8610    10.6000    -4.5980 hn         1 ADP       0.429300
     38 HN62         3.2580    12.0030    -5.4180 hn         1 ADP       0.429300
     39 H2          -0.5280    10.6390    -7.5820 h5         1 ADP       0.029100
@<TRIPOS>BOND
     1     1     2 1
     2     1     3 1
     3     1     4 1
     4     1     8 1
     5     5     6 1
     6     5     7 1
     7     5     8 1
     8     5     9 1
     9     9    10 1
    10    10    11 1
    11    10    28 1
    12    10    29 1
    13    11    12 1
    14    11    13 1
    15    11    30 1
    16    12    17 1
    17    13    14 1
    18    13    15 1
    19    13    31 1
    20    14    32 1
    21    15    16 1
    22    15    17 1
    23    15    33 1
    24    16    34 1
    25    17    18 1
    26    17    35 1
    27    18    19 1
    28    18    27 1
    29    19    20 2
    30    19    36 1
    31    20    21 1
    32    21    22 ar
    33    21    27 ar
    34    22    23 1
    35    22    24 ar
    36    23    37 1
    37    23    38 1
    38    24    25 ar
    39    25    26 ar
    40    25    39 1
    41    26    27 ar
@<TRIPOS>SUBSTRUCTURE
     1 ADP         1 TEMP              0 ****  ****    0 ROOT
