@<TRIPOS>MOLECULE
molecule
   37    39     1     0     0
SMALL
bcc


@<TRIPOS>ATOM
      1 P            0.0000     0.0000     0.0000 p5         1 ADS       1.002500
      2 O1P          1.5090     0.0000     0.0000 o          1 ADS      -0.626300
      3 S2P         -0.6780     0.0000     1.9950 sh         1 ADS      -0.496200
      4 S3P         -0.6720    -1.7390    -0.9810 sh         1 ADS      -0.496200
      5 O5'         -0.5620     1.3160    -0.7750 os         1 ADS      -0.425200
      6 C5'         -1.9570     1.5300    -0.9000 c3         1 ADS       0.164400
      7 C4'         -2.2180     2.2950    -2.1860 c3         1 ADS       0.120100
      8 O4'         -1.7850     1.5150    -3.3120 os         1 ADS      -0.392600
      9 C3'         -3.6900     2.5750    -2.4370 c3         1 ADS       0.103100
     10 O3'         -4.1500     3.6920    -1.7050 oh         1 ADS      -0.569800
     11 C2'         -3.7280     2.7770    -3.9400 c3         1 ADS       0.094100
     12 O2'         -3.3870     4.1190    -4.2870 oh         1 ADS      -0.568800
     13 C1'         -2.6320     1.8340    -4.4380 c3         1 ADS       0.248800
     14 N9          -3.1470     0.5960    -5.0260 na         1 ADS      -0.272000
     15 C8          -3.4630    -0.5510    -4.3460 cc         1 ADS       0.417700
     16 N7          -3.9030    -1.5000    -5.1470 nd         1 ADS      -0.546100
     17 C5          -3.8720    -0.9440    -6.4000 ca         1 ADS      -0.188200
     18 C6          -4.2110    -1.4390    -7.6550 ca         1 ADS       0.762200
     19 N6          -4.6940    -2.7510    -7.8020 nv         1 ADS      -1.017500
     20 N1          -4.0720    -0.6390    -8.7400 nb         1 ADS      -0.768000
     21 C2          -3.6030     0.6160    -8.5350 ca         1 ADS       0.675900
     22 N3          -3.2410     1.2070    -7.3760 nb         1 ADS      -0.718000
     23 C4          -3.4040     0.3600    -6.3480 ca         1 ADS       0.440800
     24 HSP2         0.2460    -0.5460     2.7760 hs         1 ADS       0.369800
     25 HSP3         0.1680    -2.7380    -0.7370 hs         1 ADS       0.369800
     26 H5'1        -2.4690     0.5760    -0.9350 h1         1 ADS       0.059700
     27 H5'2        -2.3150     2.1050    -0.0550 h1         1 ADS       0.059700
     28 H4'         -1.6730     3.2320    -2.1690 h1         1 ADS       0.105700
     29 H3'         -4.2720     1.6990    -2.1760 h1         1 ADS       0.043700
     30 HO3'        -4.9680     3.4790    -1.2880 ho         1 ADS       0.412000
     31 H2'         -4.6930     2.4960    -4.3440 h1         1 ADS       0.068700
     32 HO2'        -4.1540     4.5650    -4.6070 ho         1 ADS       0.419000
     33 H1'         -2.0390     2.3550    -5.1790 h2         1 ADS       0.125700
     34 H8          -3.3610    -0.6660    -3.2730 h5         1 ADS       0.077800
     35 HN61        -4.3950    -3.3100    -8.5760 hn         1 ADS       0.448300
     36 HN62        -5.3750    -3.1080    -7.1610 hn         1 ADS       0.448300
     37 H2          -3.5040     1.2290    -9.4230 h5         1 ADS       0.050100
@<TRIPOS>BOND
     1     1     2 2
     2     1     3 1
     3     1     4 1
     4     1     5 1
     5     3    24 1
     6     4    25 1
     7     5     6 1
     8     6     7 1
     9     6    26 1
    10     6    27 1
    11     7     8 1
    12     7     9 1
    13     7    28 1
    14     8    13 1
    15     9    10 1
    16     9    11 1
    17     9    29 1
    18    10    30 1
    19    11    12 1
    20    11    13 1
    21    11    31 1
    22    12    32 1
    23    13    14 1
    24    13    33 1
    25    14    15 1
    26    14    23 1
    27    15    16 2
    28    15    34 1
    29    16    17 1
    30    17    18 ar
    31    17    23 ar
    32    18    19 1
    33    18    20 ar
    34    19    35 1
    35    19    36 1
    36    20    21 ar
    37    21    22 ar
    38    21    37 1
    39    22    23 ar
@<TRIPOS>SUBSTRUCTURE
     1 ADS         1 TEMP              0 ****  ****    0 ROOT
