@<TRIPOS>MOLECULE
ADT
   37    38     1     0     0
SMALL
bcc


@<TRIPOS>ATOM
      1 N1           0.0000     0.0000     0.0000 n          1 ADT       0.048000
      2 C2           1.3450     0.0000     0.0000 c          1 ADT       0.591500
      3 O2           1.9430     0.0090    -1.0580 o          1 ADT      -0.686500
      4 N3           2.0360     0.0000     1.1540 ns         1 ADT      -0.127500
      5 C4           1.3870    -0.0120     2.3360 c          1 ADT       0.619700
      6 O4           2.0130    -0.0170     3.3810 o          1 ADT      -0.657500
      7 C5          -0.0270    -0.0160     2.3500 cc         1 ADT      -0.273400
      8 C5M         -0.7770    -0.0280     3.6580 c3         1 ADT       0.102100
      9 C6          -0.6960    -0.0100     1.1780 cd         1 ADT      -0.100400
     10 C1'         -0.7270     0.0070    -1.2710 c3         1 ADT       0.229500
     11 O4'         -0.3060    -1.1000    -2.0970 os         1 ADT      -0.363600
     12 C4'         -0.6740    -0.7340    -3.4470 c3         1 ADT       0.168100
     13 C5'          0.1370    -1.5420    -4.4590 c3         1 ADT       0.224400
     14 O5'         -0.1410    -2.9340    -4.2930 oh         1 ADT      -0.584800
     15 C3'         -0.3360     0.7690    -3.5510 c3         1 ADT      -0.006300
     16 N3'         -1.3410     1.4690    -4.3550 ns         1 ADT      -0.203900
     17 C8'         -1.0040     2.5780    -5.0400 c          1 ADT       0.572100
     18 O8'          0.1330     2.9980    -4.9930 o          1 ADT      -0.637100
     19 C9'         -2.0380     3.2980    -5.8670 c3         1 ADT      -0.066100
     20 C2'         -0.3680     1.2670    -2.0890 c3         1 ADT      -0.093400
     21 HN3          3.0370     0.0000     1.1360 hn         1 ADT       0.207500
     22 HM51        -0.5130    -0.9160     4.2180 hc         1 ADT       0.010700
     23 HM52        -1.8420    -0.0270     3.4630 hc         1 ADT       0.010700
     24 HM53        -0.5140     0.8530     4.2320 hc         1 ADT       0.010700
     25 H6          -1.7790    -0.0110     1.1700 h4         1 ADT       0.135000
     26 H1'         -1.7960    -0.0370    -1.1010 h2         1 ADT       0.026700
     27 H4'         -1.7360    -0.8880    -3.5990 h1         1 ADT       0.017700
     28 H5'1         1.1930    -1.3640    -4.3000 h1         1 ADT       0.000700
     29 H5'2        -0.1330    -1.2380    -5.4630 h1         1 ADT       0.000700
     30 HO5'         0.2680    -3.4210    -4.9880 ho         1 ADT       0.392000
     31 H3'          0.6530     0.9030    -3.9720 h1         1 ADT       0.086700
     32 HN3'        -2.2820     1.1290    -4.3850 hn         1 ADT       0.174500
     33 H9'1        -2.9310     3.4520    -5.2740 hc         1 ADT       0.023367
     34 H9'2        -1.6450     4.2570    -6.1830 hc         1 ADT       0.023367
     35 H9'3        -2.2820     2.7020    -6.7380 hc         1 ADT       0.023367
     36 H2'1         0.6040     1.6430    -1.7960 hc         1 ADT       0.050200
     37 H2'2        -1.1300     2.0270    -1.9650 hc         1 ADT       0.050200
@<TRIPOS>BOND
     1     1     2 1   
     2     1     9 1   
     3     1    10 1   
     4     2     3 2   
     5     2     4 1   
     6     4     5 1   
     7     4    21 1   
     8     5     6 2   
     9     5     7 1   
    10     7     8 1   
    11     7     9 2   
    12     8    22 1   
    13     8    23 1   
    14     8    24 1   
    15     9    25 1   
    16    10    11 1   
    17    10    20 1   
    18    10    26 1   
    19    11    12 1   
    20    12    13 1   
    21    12    15 1   
    22    12    27 1   
    23    13    14 1   
    24    13    28 1   
    25    13    29 1   
    26    14    30 1   
    27    15    16 1   
    28    15    20 1   
    29    15    31 1   
    30    16    17 1   
    31    16    32 1   
    32    17    18 2   
    33    17    19 1   
    34    19    33 1   
    35    19    34 1   
    36    19    35 1   
    37    20    36 1   
    38    20    37 1   
@<TRIPOS>SUBSTRUCTURE
     1 ADT         1 TEMP              0 ****  ****    0 ROOT
