@<TRIPOS>MOLECULE
molecule
   35    36     1     0     0
SMALL
bcc


@<TRIPOS>ATOM
      1 N1           0.0000     0.0000     0.0000 n          1 ADU      -0.392000
      2 C2           1.4150     0.0000     0.0000 c          1 ADU       0.834500
      3 O2           2.1000    -0.0010    -1.0250 o          1 ADU      -0.613500
      4 N3           2.0110     0.0000     1.2690 ns         1 ADU      -0.592500
      5 C4           1.3590     0.0000     2.4920 c          1 ADU       0.719700
      6 O4           1.9250     0.0000     3.5810 o          1 ADU      -0.601500
      7 C5          -0.1150     0.0000     2.4030 cc         1 ADU      -0.318200
      8 C6          -0.6970     0.0000     1.2030 cd         1 ADU       0.037600
      9 C1'         -0.7450    -0.0010    -1.2270 c3         1 ADU       0.303500
     10 O4'         -1.9680     0.7240    -1.0280 os         1 ADU      -0.393600
     11 C4'         -3.0660    -0.0430    -1.5620 c3         1 ADU       0.107100
     12 C5'         -3.8990    -0.5580    -0.3940 c3         1 ADU       0.126400
     13 O5'         -4.4200     0.5530     0.3150 oh         1 ADU      -0.591800
     14 C3'         -2.4460    -1.1640    -2.3910 c3         1 ADU       0.069700
     15 N3'         -2.2420    -0.7360    -3.7570 ns         1 ADU      -0.580900
     16 C8'         -3.1640    -0.9540    -4.7620 c          1 ADU       0.674100
     17 O8'         -4.2450    -1.5190    -4.6480 o          1 ADU      -0.594100
     18 C9'         -2.7460    -0.4260    -6.0950 c3         1 ADU      -0.184100
     19 C2'         -1.1350    -1.4020    -1.6650 c3         1 ADU       0.088100
     20 O2'         -0.1390    -2.0000    -2.4700 oh         1 ADU      -0.570800
     21 HN3          3.0110    -0.0000     1.2940 hn         1 ADU       0.343500
     22 H5          -0.7180     0.0000     3.3040 ha         1 ADU       0.177000
     23 H6          -1.7790     0.0000     1.1630 h4         1 ADU       0.176000
     24 H1'         -0.1660     0.4740    -2.0090 h2         1 ADU       0.106700
     25 H4'         -3.6740     0.5880    -2.2000 h1         1 ADU       0.101700
     26 H5'1        -4.7130    -1.1670    -0.7670 h1         1 ADU       0.031200
     27 H5'2        -3.2740    -1.1500     0.2650 h1         1 ADU       0.031200
     28 HO5'        -5.2360     0.3120     0.7210 ho         1 ADU       0.408000
     29 H3'         -3.0660    -2.0510    -2.3510 h1         1 ADU       0.092700
     30 HN3'        -1.3920    -0.2590    -3.9850 hn         1 ADU       0.333500
     31 H9'1        -1.8340    -0.9190    -6.4090 hc         1 ADU       0.066367
     32 H9'2        -3.5270    -0.6170    -6.8200 hc         1 ADU       0.066367
     33 H9'3        -2.5730     0.6410    -6.0230 hc         1 ADU       0.066367
     34 H2'         -1.3150    -2.0140    -0.7900 h1         1 ADU       0.055700
     35 HO2'        -0.0760    -2.9170    -2.2620 ho         1 ADU       0.419000
@<TRIPOS>BOND
     1     1     2 1
     2     1     8 1
     3     1     9 1
     4     2     3 2
     5     2     4 1
     6     4     5 1
     7     4    21 1
     8     5     6 2
     9     5     7 1
    10     7     8 2
    11     7    22 1
    12     8    23 1
    13     9    10 1
    14     9    19 1
    15     9    24 1
    16    10    11 1
    17    11    12 1
    18    11    14 1
    19    11    25 1
    20    12    13 1
    21    12    26 1
    22    12    27 1
    23    13    28 1
    24    14    15 1
    25    14    19 1
    26    14    29 1
    27    15    16 1
    28    15    30 1
    29    16    17 2
    30    16    18 1
    31    18    31 1
    32    18    32 1
    33    18    33 1
    34    19    20 1
    35    19    34 1
    36    20    35 1
@<TRIPOS>SUBSTRUCTURE
     1 ADU         1 TEMP              0 ****  ****    0 ROOT
