@<TRIPOS>MOLECULE
ADY
   30    32     1     0     0
SMALL
bcc


@<TRIPOS>ATOM
      1 O5'          0.0000     0.0000     0.0000 oh         1 ADY      -0.581800
      2 C5'          1.4290     0.0000     0.0000 c3         1 ADY       0.229400
      3 C4'          1.9400     0.0000     1.4420 c3         1 ADY       0.067100
      4 O4'          1.5920    -1.2390     2.0830 os         1 ADY      -0.376600
      5 C3'          3.4520     0.1160     1.4540 c          1 ADY       0.568100
      6 O3'          4.1260     1.0010     0.9840 o          1 ADY      -0.496100
      7 C2'          3.9340    -1.1280     2.1930 c3         1 ADY       0.035100
      8 O2'          5.0180    -0.8100     3.0700 oh         1 ADY      -0.543800
      9 C1'          2.6740    -1.5490     2.9890 c3         1 ADY       0.160800
     10 N9           2.7040    -2.9830     3.2870 na         1 ADY       0.202000
     11 C8           2.1510    -3.9760     2.5330 cc         1 ADY       0.248700
     12 N7           2.3670    -5.1300     3.0930 nd         1 ADY      -0.492100
     13 C5           3.0740    -4.9540     4.2350 ca         1 ADY      -0.246200
     14 C6           3.5720    -5.8100     5.2310 ca         1 ADY       0.592200
     15 N6           3.3820    -7.1790     5.1490 nv         1 ADY      -0.480500
     16 N1           4.2360    -5.2760     6.2510 nb         1 ADY      -0.743000
     17 C2           4.4230    -3.9730     6.3370 ca         1 ADY       0.693900
     18 N3           3.9690    -3.1320     5.4320 nb         1 ADY      -0.675000
     19 C4           3.2930    -3.5730     4.3770 ca         1 ADY       0.279800
     20 HO5'        -0.3140    -0.0160    -0.8890 ho         1 ADY       0.396000
     21 H5'1         1.7900    -0.8840    -0.5110 h1         1 ADY      -0.000300
     22 H5'2         1.7900     0.8850    -0.5110 h1         1 ADY      -0.000300
     23 H4'          1.5060     0.8280     1.9900 h1         1 ADY       0.058700
     24 H2'          4.2170    -1.9030     1.4900 h1         1 ADY       0.041700
     25 HO2'         5.8310    -0.8540     2.5940 ho         1 ADY       0.405000
     26 H1'          2.5870    -0.9660     3.8980 h2         1 ADY       0.068700
     27 H8           1.6120    -3.8250     1.6050 h5         1 ADY       0.040800
     28 HN61         2.8860    -7.5690     4.3730 hn         1 ADY       0.276300
     29 HN62         3.7410    -7.7780     5.8660 hn         1 ADY       0.276300
     30 H2           4.9700    -3.5790     7.1860 h5         1 ADY      -0.003900
@<TRIPOS>BOND
     1     1     2 1   
     2     1    20 1   
     3     2     3 1   
     4     2    21 1   
     5     2    22 1   
     6     3     4 1   
     7     3     5 1   
     8     3    23 1   
     9     4     9 1   
    10     5     6 2   
    11     5     7 1   
    12     7     8 1   
    13     7     9 1   
    14     7    24 1   
    15     8    25 1   
    16     9    10 1   
    17     9    26 1   
    18    10    11 1   
    19    10    19 1   
    20    11    12 2   
    21    11    27 1   
    22    12    13 1   
    23    13    14 ar  
    24    13    19 ar  
    25    14    15 1   
    26    14    16 ar  
    27    15    28 1   
    28    15    29 1   
    29    16    17 ar  
    30    17    18 ar  
    31    17    30 1   
    32    18    19 ar  
@<TRIPOS>SUBSTRUCTURE
     1 ADY         1 TEMP              0 ****  ****    0 ROOT
