@<TRIPOS>MOLECULE
ADZ
   18    19     1     0     0
SMALL
bcc


@<TRIPOS>ATOM
      1 N9           0.0000     0.0000     0.0000 na         1 ADZ       0.205000
      2 C8           1.3630     0.0000     0.0000 cc         1 ADZ       0.253700
      3 N7           1.8080     0.0000     1.2220 nd         1 ADZ      -0.487100
      4 C5           0.7610     0.0000     2.0820 ca         1 ADZ      -0.186200
      5 C6           0.6340    -0.0000     3.4810 ca         1 ADZ       0.602200
      6 N6           1.7520    -0.0000     4.2950 nv         1 ADZ      -0.645500
      7 N1          -0.5870     0.0000     4.0050 nb         1 ADZ      -0.660000
      8 C2          -1.6610     0.0000     3.2370 ca         1 ADZ       0.639900
      9 N3          -1.5890     0.0000     1.9230 nb         1 ADZ      -0.619000
     10 C4          -0.4100     0.0040     1.3090 ca         1 ADZ       0.224800
     11 C1'         -0.8670     0.0000    -1.1810 c3         1 ADZ       0.003600
     12 H8           1.9840     0.0000    -0.8880 h5         1 ADZ       0.031800
     13 H6N1         2.1470     0.8670     4.6020 hn         1 ADZ       0.281800
     14 H6N2         2.1480    -0.8670     4.6010 hn         1 ADZ       0.281800
     15 H2          -2.6370     0.0000     3.7050 h5         1 ADZ      -0.001900
     16 H1'1        -0.2570    -0.0060    -2.0760 h1         1 ADZ       0.024367
     17 H1'2        -1.4880     0.8880    -1.1730 h1         1 ADZ       0.024367
     18 H1'3        -1.4960    -0.8810    -1.1670 h1         1 ADZ       0.024367
@<TRIPOS>BOND
     1     1     2 1   
     2     1    10 1   
     3     1    11 1   
     4     2     3 2   
     5     2    12 1   
     6     3     4 1   
     7     4     5 ar  
     8     4    10 ar  
     9     5     6 1   
    10     5     7 ar  
    11     6    13 1   
    12     6    14 1   
    13     7     8 ar  
    14     8     9 ar  
    15     8    15 1   
    16     9    10 ar  
    17    11    16 1   
    18    11    17 1   
    19    11    18 1   
@<TRIPOS>SUBSTRUCTURE
     1 ADZ         1 TEMP              0 ****  ****    0 ROOT
