@<TRIPOS>MOLECULE
molecule
   36    35     1     0     0
SMALL
bcc


@<TRIPOS>ATOM
      1 O1           0.0000     0.0000     0.0000 o          1 AE1      -0.860800
      2 C3           1.3420     0.0000     0.0000 c          1 AE1       0.875600
      3 O2           1.9460     0.0000     1.0470 o          1 AE1      -0.860800
      4 C2           2.0960     0.0010    -1.3040 c3         1 AE1      -0.181400
      5 C1           3.5890     0.1930    -1.0310 c3         1 AE1      -0.043700
      6 N            3.8150     1.5280    -0.4620 nz         1 AE1      -0.776600
      7 P            4.5180     0.0340    -2.5910 p5         1 AE1       0.905400
      8 O1P          3.9260     1.0660    -3.6760 o          1 AE1      -0.768000
      9 O2P          4.3880    -1.3490    -3.1030 o          1 AE1      -0.768000
     10 C8           6.2760     0.4080    -2.2920 c3         1 AE1      -0.240600
     11 C6           7.0780     0.1470    -3.5690 c3         1 AE1      -0.129700
     12 C7           8.5480     0.1020    -3.2400 c          1 AE1       0.897600
     13 O4           9.1470    -1.0760    -3.0010 o          1 AE1      -0.873800
     14 O3           9.1880     1.1260    -3.1890 o          1 AE1      -0.873800
     15 C5           6.8150     1.2690    -4.5750 c3         1 AE1      -0.081400
     16 C16          7.5170     0.9450    -5.8960 c3         1 AE1      -0.066700
     17 C17          6.8890    -0.3070    -6.5130 c3         1 AE1      -0.086600
     18 C18          7.3590     2.1220    -6.8600 c3         1 AE1      -0.086600
     19 H21          1.9400    -0.9440    -1.8120 hc         1 AE1       0.083700
     20 H22          1.7360     0.8090    -1.9290 hc         1 AE1       0.083700
     21 H1           3.9280    -0.5600    -0.3300 hx         1 AE1       0.112700
     22 HN1          4.6990     1.5460     0.0060 hn         1 AE1       0.432467
     23 HN2          3.0870     1.7390     0.1930 hn         1 AE1       0.432467
     24 H81          6.6500    -0.2240    -1.4960 hc         1 AE1       0.033200
     25 H82          6.3810     1.4480    -2.0070 hc         1 AE1       0.033200
     26 H6           6.7750    -0.8000    -3.9980 hc         1 AE1       0.074700
     27 H51          5.7490     1.3590    -4.7450 hc         1 AE1       0.054700
     28 H52          7.1990     2.2030    -4.1830 hc         1 AE1       0.054700
     29 H16          8.5700     0.7680    -5.7120 hc         1 AE1       0.067700
     30 H171         5.8110    -0.2010    -6.5270 hc         1 AE1       0.020200
     31 H172         7.2530    -0.4320    -7.5260 hc         1 AE1       0.020200
     32 H173         7.1600    -1.1750    -5.9230 hc         1 AE1       0.020200
     33 H183         7.8770     1.9030    -7.7850 hc         1 AE1       0.020200
     34 H181         7.7800     3.0140    -6.4120 hc         1 AE1       0.020200
     35 H182         6.3070     2.2830    -7.0640 hc         1 AE1       0.020200
     36 HN3          3.7970     2.2100    -1.1940 hn         1 AE1       0.432467
@<TRIPOS>BOND
     1     1     2 1
     2     2     3 1
     3     2     4 1
     4     4     5 1
     5     4    19 1
     6     4    20 1
     7     5     6 1
     8     5     7 1
     9     5    21 1
    10     6    22 1
    11     6    23 1
    12     7     8 1
    13     7     9 1
    14     7    10 1
    15    10    11 1
    16    10    24 1
    17    10    25 1
    18    11    12 1
    19    11    15 1
    20    11    26 1
    21    12    13 1
    22    12    14 1
    23    15    16 1
    24    15    27 1
    25    15    28 1
    26    16    17 1
    27    16    18 1
    28    16    29 1
    29    17    30 1
    30    17    31 1
    31    17    32 1
    32    18    33 1
    33    18    34 1
    34    18    35 1
    35    36     6 1
@<TRIPOS>SUBSTRUCTURE
     1 AE1         1 TEMP              0 ****  ****    0 ROOT
