@<TRIPOS>MOLECULE
molecule
   51    54     1     0     0
SMALL
bcc


@<TRIPOS>ATOM
      1 C1           0.0000     0.0000     0.0000 c3         1 AE2      -0.072400
      2 C2           1.5290     0.0000     0.0000 c3         1 AE2      -0.092400
      3 C3           2.0390     0.0000     1.4420 c3         1 AE2       0.147100
      4 O3           3.4680     0.0000     1.4420 oh         1 AE2      -0.606800
      5 C4           1.5290     1.2490     2.1630 c3         1 AE2      -0.091400
      6 C5          -0.0000     1.2480     2.1630 c3         1 AE2      -0.056700
      7 C6          -0.5100     2.4960     2.8860 c3         1 AE2      -0.075400
      8 C7          -0.0100     3.7470     2.1630 c3         1 AE2      -0.078400
      9 C8          -0.5260     3.7460     0.7260 c3         1 AE2      -0.059700
     10 C9          -0.0010     2.4990     0.0020 c3         1 AE2      -0.057700
     11 C10         -0.5110     1.2500     0.7210 c3         1 AE2      -0.054000
     12 C11         -0.4510     2.4630    -1.4540 c3         1 AE2      -0.085400
     13 C12         -0.0520     3.7510    -2.1940 c3         1 AE2      -0.055400
     14 C13         -0.6680     4.9130    -1.4420 c3         1 AE2      -0.180000
     15 C14         -0.0220     4.9690    -0.0180 c3         1 AE2      -0.063700
     16 C15         -0.5210     6.3320     0.4790 c3         1 AE2      -0.074400
     17 C16         -0.3820     7.2230    -0.7850 c3         1 AE2      -0.192400
     18 C17         -0.4090     6.2870    -1.9840 c          1 AE2       0.590100
     19 O17         -0.2590     6.5880    -3.1430 o          1 AE2      -0.508100
     20 C18         -2.1770     4.6940    -1.3040 c3         1 AE2      -0.082100
     21 C19         -2.0400     1.2490     0.7210 c3         1 AE2      -0.088100
     22 H11         -0.3600    -0.8840     0.5130 hc         1 AE2       0.045200
     23 H12         -0.3600     0.0020    -1.0220 hc         1 AE2       0.045200
     24 H21          1.8880     0.8860    -0.5090 hc         1 AE2       0.052700
     25 H22          1.8880    -0.8860    -0.5090 hc         1 AE2       0.052700
     26 H3           1.6730    -0.8830     1.9520 h1         1 AE2       0.028700
     27 HO3          3.7820    -0.7600     1.9030 ho         1 AE2       0.400000
     28 H41          1.8890     2.1320     1.6500 hc         1 AE2       0.054700
     29 H42          1.8890     1.2460     3.1850 hc         1 AE2       0.054700
     30 H5          -0.3610     0.3630     2.6730 hc         1 AE2       0.049700
     31 H61         -1.5940     2.4930     2.8890 hc         1 AE2       0.043200
     32 H62         -0.1420     2.4980     3.9050 hc         1 AE2       0.043200
     33 H71         -0.3740     4.6290     2.6760 hc         1 AE2       0.044700
     34 H72          1.0740     3.7490     2.1570 hc         1 AE2       0.044700
     35 H8          -1.6090     3.7390     0.7270 hc         1 AE2       0.063700
     36 H9           1.0820     2.5050     0.0340 hc         1 AE2       0.062700
     37 H111        -1.5280     2.3550    -1.4880 hc         1 AE2       0.047700
     38 H112         0.0120     1.6160    -1.9450 hc         1 AE2       0.047700
     39 H121         1.0270     3.8500    -2.2040 hc         1 AE2       0.052200
     40 H122        -0.4340     3.7250    -3.2070 hc         1 AE2       0.052200
     41 H14          1.0590     4.9590    -0.0900 hc         1 AE2       0.064700
     42 H151         0.1090     6.7020     1.2790 hc         1 AE2       0.051200
     43 H152        -1.5560     6.2700     0.7920 hc         1 AE2       0.051200
     44 H161        -1.2120     7.9170    -0.8410 hc         1 AE2       0.071200
     45 H162         0.5580     7.7600    -0.7570 hc         1 AE2       0.071200
     46 H181        -2.4670     4.8230    -0.2690 hc         1 AE2       0.044033
     47 H182        -2.4270     3.6900    -1.6260 hc         1 AE2       0.044033
     48 H183        -2.7040     5.4120    -1.9200 hc         1 AE2       0.044033
     49 H191        -2.4010     0.4360     1.3390 hc         1 AE2       0.036700
     50 H192        -2.4010     1.1210    -0.2920 hc         1 AE2       0.036700
     51 H193        -2.4020     2.1910     1.1170 hc         1 AE2       0.036700
@<TRIPOS>BOND
     1     1     2 1
     2     1    11 1
     3     1    22 1
     4     1    23 1
     5     2     3 1
     6     2    24 1
     7     2    25 1
     8     3     4 1
     9     3     5 1
    10     3    26 1
    11     4    27 1
    12     5     6 1
    13     5    28 1
    14     5    29 1
    15     6     7 1
    16     6    11 1
    17     6    30 1
    18     7     8 1
    19     7    31 1
    20     7    32 1
    21     8     9 1
    22     8    33 1
    23     8    34 1
    24     9    10 1
    25     9    15 1
    26     9    35 1
    27    10    11 1
    28    10    12 1
    29    10    36 1
    30    11    21 1
    31    12    13 1
    32    12    37 1
    33    12    38 1
    34    13    14 1
    35    13    39 1
    36    13    40 1
    37    14    15 1
    38    14    18 1
    39    14    20 1
    40    15    16 1
    41    15    41 1
    42    16    17 1
    43    16    42 1
    44    16    43 1
    45    17    18 1
    46    17    44 1
    47    17    45 1
    48    18    19 2
    49    20    46 1
    50    20    47 1
    51    20    48 1
    52    21    49 1
    53    21    50 1
    54    21    51 1
@<TRIPOS>SUBSTRUCTURE
     1 AE2         1 TEMP              0 ****  ****    0 ROOT
