@<TRIPOS>MOLECULE
AE2
   51    54     1     0     0
SMALL
bcc


@<TRIPOS>ATOM
      1 C1          0.1090   -0.0300    0.0410 c3        1 AE2     -0.070400
      2 C2          1.6140   -0.1170    0.1260 c3        1 AE2     -0.112400
      3 C3          2.0630   -0.0920    1.5820 c3        1 AE2      0.142100
      4 O3          3.4820   -0.0480    1.6840 oh        1 AE2     -0.600800
      5 C4          1.5420    1.1570    2.2810 c3        1 AE2     -0.073400
      6 C5          0.0280    1.2650    2.1750 c3        1 AE2     -0.052700
      7 C6         -0.4530    2.5170    2.8940 c3        1 AE2     -0.071400
      8 C7         -0.0980    3.7860    2.1520 c3        1 AE2     -0.073400
      9 C8         -0.6130    3.7500    0.7240 c3        1 AE2     -0.045700
     10 C9         -0.0880    2.5060   -0.0170 c3        1 AE2     -0.047700
     11 C10        -0.4830    1.2140    0.7190 c3        1 AE2     -0.035000
     12 C11        -0.5010    2.5010   -1.4850 c3        1 AE2     -0.075400
     13 C12        -0.2110    3.7990   -2.2250 c3        1 AE2     -0.056400
     14 C13        -0.7740    4.9850   -1.4660 c3        1 AE2     -0.152000
     15 C14        -0.1510    4.9660   -0.0510 c3        1 AE2     -0.064700
     16 C15        -0.4050    6.3680    0.4950 c3        1 AE2     -0.072400
     17 C16        -0.2680    7.2760   -0.7310 c3        1 AE2     -0.188400
     18 C17        -0.3790    6.3770   -1.9480 c         1 AE2      0.577100
     19 O17        -0.1930    6.7260   -3.1110 o         1 AE2     -0.521100
     20 C18        -2.2970    4.9550   -1.4750 c3        1 AE2     -0.082100
     21 C19        -1.9970    1.0160    0.7330 c3        1 AE2     -0.089100
     22 H11        -0.3310   -0.9380    0.5380 hc        1 AE2      0.042700
     23 H12        -0.2100   -0.0610   -1.0330 hc        1 AE2      0.042700
     24 H21         2.0920    0.7340   -0.4260 hc        1 AE2      0.047200
     25 H22         1.9630   -1.0670   -0.3580 hc        1 AE2      0.047200
     26 H3          1.6870   -1.0140    2.1090 h1        1 AE2      0.031700
     27 HO3         3.8190   -0.7920    1.1710 ho        1 AE2      0.398000
     28 H41         1.8370    1.1170    3.3620 hc        1 AE2      0.055700
     29 H42         2.0380    2.0570    1.8350 hc        1 AE2      0.055700
     30 H5         -0.4110    0.3720    2.7080 hc        1 AE2      0.045700
     31 H61        -1.5660    2.4590    3.0230 hc        1 AE2      0.041700
     32 H62         0.0010    2.5490    3.9200 hc        1 AE2      0.041700
     33 H71        -0.5440    4.6690    2.6810 hc        1 AE2      0.042200
     34 H72         1.0150    3.9290    2.1490 hc        1 AE2      0.042200
     35 H8         -1.7360    3.7300    0.7510 hc        1 AE2      0.055700
     36 H9          1.0400    2.5640    0.0070 hc        1 AE2      0.052700
     37 H111       -1.5950    2.2680   -1.5670 hc        1 AE2      0.042700
     38 H112        0.0550    1.6810   -2.0140 hc        1 AE2      0.042700
     39 H121       -0.6620    3.7530   -3.2500 hc        1 AE2      0.050700
     40 H122        0.8960    3.9270   -2.3490 hc        1 AE2      0.050700
     41 H14         0.9690    4.8720   -0.1770 hc        1 AE2      0.052700
     42 H151        0.3360    6.6350    1.2860 hc        1 AE2      0.049200
     43 H152       -1.4270    6.4470    0.9400 hc        1 AE2      0.049200
     44 H161        0.7190    7.8000   -0.7390 hc        1 AE2      0.074200
     45 H162       -1.0730    8.0520   -0.7600 hc        1 AE2      0.074200
     46 H181       -2.6830    3.9750   -1.1060 hc        1 AE2      0.043367
     47 H182       -2.7080    5.7640   -0.8250 hc        1 AE2      0.043367
     48 H183       -2.6640    5.1080   -2.5190 hc        1 AE2      0.043367
     49 H191       -2.2650    0.1450    1.3800 hc        1 AE2      0.035367
     50 H192       -2.5220    1.9170    1.1300 hc        1 AE2      0.035367
     51 H193       -2.3730    0.8120   -0.2980 hc        1 AE2      0.035367
@<TRIPOS>BOND
     1    1    2 1   
     2    1   11 1   
     3    1   22 1   
     4    1   23 1   
     5    2    3 1   
     6    2   24 1   
     7    2   25 1   
     8    3    4 1   
     9    3    5 1   
    10    3   26 1   
    11    4   27 1   
    12    5    6 1   
    13    5   28 1   
    14    5   29 1   
    15    6    7 1   
    16    6   11 1   
    17    6   30 1   
    18    7    8 1   
    19    7   31 1   
    20    7   32 1   
    21    8    9 1   
    22    8   33 1   
    23    8   34 1   
    24    9   10 1   
    25    9   15 1   
    26    9   35 1   
    27   10   11 1   
    28   10   12 1   
    29   10   36 1   
    30   11   21 1   
    31   12   13 1   
    32   12   37 1   
    33   12   38 1   
    34   13   14 1   
    35   13   39 1   
    36   13   40 1   
    37   14   15 1   
    38   14   18 1   
    39   14   20 1   
    40   15   16 1   
    41   15   41 1   
    42   16   17 1   
    43   16   42 1   
    44   16   43 1   
    45   17   18 1   
    46   17   44 1   
    47   17   45 1   
    48   18   19 2   
    49   20   46 1   
    50   20   47 1   
    51   20   48 1   
    52   21   49 1   
    53   21   50 1   
    54   21   51 1   
@<TRIPOS>SUBSTRUCTURE
     1 AE2         1 TEMP              0 ****  ****    0 ROOT
