@<TRIPOS>MOLECULE
molecule
   23    22     1     0     0
SMALL
bcc


@<TRIPOS>ATOM
      1 C1           0.0000     0.0000     0.0000 c3         1 AE3      -0.092100
      2 C2           1.5300     0.0000     0.0000 c3         1 AE3       0.122400
      3 O2           2.0060     0.0000     1.3470 os         1 AE3      -0.399600
      4 C3           3.4340     0.0000     1.2800 c3         1 AE3       0.127400
      5 C4           4.0110     0.0010     2.6970 c3         1 AE3       0.125400
      6 O3           3.6640    -1.2200     3.3530 os         1 AE3      -0.385600
      7 C5           4.2280    -1.1610     4.6640 c3         1 AE3       0.128400
      8 C6           3.8910    -2.4450     5.4240 c3         1 AE3       0.142400
      9 O4           4.5290    -3.5550     4.7890 oh         1 AE3      -0.600800
     10 H1C1        -0.3610     0.0390    -1.0210 hc         1 AE3       0.043367
     11 H1C2        -0.3610    -0.9030     0.4760 hc         1 AE3       0.043367
     12 H1C3        -0.3610     0.8640     0.5440 hc         1 AE3       0.043367
     13 H2C1         1.8910    -0.8850    -0.5110 h1         1 AE3       0.023200
     14 H2C2         1.8910     0.8850    -0.5110 h1         1 AE3       0.023200
     15 H3C1         3.7710     0.8850     0.7530 h1         1 AE3       0.034700
     16 H3C2         3.7710    -0.8840     0.7530 h1         1 AE3       0.034700
     17 H4C1         5.0900     0.0900     2.6480 h1         1 AE3       0.032700
     18 H4C2         3.6050     0.8370     3.2530 h1         1 AE3       0.032700
     19 H5C1         3.8190    -0.3090     5.1940 h1         1 AE3       0.032700
     20 H5C2         5.3040    -1.0560     4.5900 h1         1 AE3       0.032700
     21 H6C1         2.8190    -2.5950     5.4230 h1         1 AE3       0.029200
     22 H6C2         4.2430    -2.3630     6.4460 h1         1 AE3       0.029200
     23 H4           4.3970    -4.3320     5.3070 ho         1 AE3       0.399000
@<TRIPOS>BOND
     1     1     2 1
     2     1    10 1
     3     1    11 1
     4     1    12 1
     5     2     3 1
     6     2    13 1
     7     2    14 1
     8     3     4 1
     9     4     5 1
    10     4    15 1
    11     4    16 1
    12     5     6 1
    13     5    17 1
    14     5    18 1
    15     6     7 1
    16     7     8 1
    17     7    19 1
    18     7    20 1
    19     8     9 1
    20     8    21 1
    21     8    22 1
    22     9    23 1
@<TRIPOS>SUBSTRUCTURE
     1 AE3         1 TEMP              0 ****  ****    0 ROOT
