@<TRIPOS>MOLECULE
AE3
   23    22     1     0     0
SMALL
bcc


@<TRIPOS>ATOM
      1 C1          0.0550    0.5190   -0.0030 c3        1 AE3     -0.097100
      2 C2          1.4100   -0.1500   -0.0050 c3        1 AE3      0.131400
      3 O2          2.0340    0.1750    1.2360 os        1 AE3     -0.427600
      4 C3          3.3380   -0.3880    1.3490 c3        1 AE3      0.126400
      5 C4          3.8140   -0.0930    2.7680 c3        1 AE3      0.129400
      6 O3          3.8390   -1.3430    3.4550 os        1 AE3     -0.438600
      7 C5          4.0940   -1.1910    4.8500 c3        1 AE3      0.087400
      8 C6          4.1480   -2.6020    5.4270 c3        1 AE3      0.131400
      9 O4          5.2550   -3.3260    4.9310 oh        1 AE3     -0.600800
     10 H1C1       -0.5580    0.1510    0.8540 hc        1 AE3      0.045367
     11 H1C2       -0.4730    0.2870   -0.9590 hc        1 AE3      0.045367
     12 H1C3        0.1670    1.6250    0.0950 hc        1 AE3      0.045367
     13 H2C1        2.0450    0.2240   -0.8530 h1        1 AE3      0.025700
     14 H2C2        1.3100   -1.2660   -0.0920 h1        1 AE3      0.025700
     15 H3C1        4.0170    0.0970    0.6000 h1        1 AE3      0.041700
     16 H3C2        3.3020   -1.4940    1.1630 h1        1 AE3      0.041700
     17 H4C1        4.8490    0.3380    2.7560 h1        1 AE3      0.044700
     18 H4C2        3.1140    0.6180    3.2830 h1        1 AE3      0.044700
     19 H5C1        3.2680   -0.6010    5.3260 h1        1 AE3      0.039700
     20 H5C2        5.0720   -0.6620    5.0000 h1        1 AE3      0.039700
     21 H6C1        3.1950   -3.1480    5.1950 h1        1 AE3      0.053200
     22 H6C2        4.3030   -2.5530    6.5370 h1        1 AE3      0.053200
     23 H4          5.1810   -3.3270    3.9680 ho        1 AE3      0.412000
@<TRIPOS>BOND
     1    1    2 1   
     2    1   10 1   
     3    1   11 1   
     4    1   12 1   
     5    2    3 1   
     6    2   13 1   
     7    2   14 1   
     8    3    4 1   
     9    4    5 1   
    10    4   15 1   
    11    4   16 1   
    12    5    6 1   
    13    5   17 1   
    14    5   18 1   
    15    6    7 1   
    16    7    8 1   
    17    7   19 1   
    18    7   20 1   
    19    8    9 1   
    20    8   21 1   
    21    8   22 1   
    22    9   23 1   
@<TRIPOS>SUBSTRUCTURE
     1 AE3         1 TEMP              0 ****  ****    0 ROOT
