@<TRIPOS>MOLECULE
molecule
   44    43     1     0     0
SMALL
bcc


@<TRIPOS>ATOM
      1 C2           0.0000     0.0000     0.0000 c3         1 AE4      -0.092100
      2 C3           1.5300     0.0000     0.0000 c3         1 AE4       0.122400
      3 O4           2.0070     0.0000     1.3470 os         1 AE4      -0.400600
      4 C5           3.4350     0.0000     1.2800 c3         1 AE4       0.127400
      5 C6           4.0120     0.0010     2.6970 c3         1 AE4       0.126400
      6 O7           3.6640    -1.2200     3.3540 os         1 AE4      -0.387600
      7 C8           4.2280    -1.1590     4.6650 c3         1 AE4       0.126400
      8 C9           3.8910    -2.4430     5.4260 c3         1 AE4       0.126400
      9 C11          4.1770    -4.7170     5.5430 c3         1 AE4       0.126400
     10 O10          4.5290    -3.5540     4.7900 os         1 AE4      -0.389600
     11 C12          4.8300    -5.9480     4.9130 c3         1 AE4       0.126400
     12 O13          6.2520    -5.8430     5.0230 os         1 AE4      -0.389600
     13 C14          6.8010    -7.0160     4.4200 c3         1 AE4       0.126400
     14 C15          8.3280    -6.9650     4.5030 c3         1 AE4       0.125400
     15 O16          8.7320    -7.0190     5.8730 os         1 AE4      -0.386600
     16 C17         10.1600    -6.9680     5.8840 c3         1 AE4       0.128400
     17 C18         10.6600    -7.0230     7.3290 c3         1 AE4       0.141400
     18 O19         10.3230    -8.2870     7.9030 oh         1 AE4      -0.600800
     19 H2C1        -0.3610     0.8640     0.5450 hc         1 AE4       0.043367
     20 H2C2        -0.3610    -0.9040     0.4760 hc         1 AE4       0.043367
     21 H2C3        -0.3610     0.0400    -1.0210 hc         1 AE4       0.043367
     22 H3C1         1.8910     0.8840    -0.5110 h1         1 AE4       0.022700
     23 H3C2         1.8910    -0.8840    -0.5110 h1         1 AE4       0.022700
     24 H5C1         3.7710     0.8850     0.7530 h1         1 AE4       0.034200
     25 H5C2         3.7720    -0.8840     0.7540 h1         1 AE4       0.034200
     26 H6C1         3.6070     0.8380     3.2520 h1         1 AE4       0.033200
     27 H6C2         5.0910     0.0900     2.6470 h1         1 AE4       0.033200
     28 H8C1         3.8190    -0.3070     5.1950 h1         1 AE4       0.033700
     29 H8C2         5.3040    -1.0550     4.5910 h1         1 AE4       0.033700
     30 H9C1         4.2430    -2.3610     6.4470 h1         1 AE4       0.034700
     31 H9C2         2.8190    -2.5930     5.4240 h1         1 AE4       0.034700
     32 H111         3.1010    -4.8370     5.5400 h1         1 AE4       0.034700
     33 H112         4.5250    -4.6050     6.5630 h1         1 AE4       0.034700
     34 H121         4.5520    -6.0100     3.8680 h1         1 AE4       0.034700
     35 H122         4.4930    -6.8390     5.4290 h1         1 AE4       0.034700
     36 H141         6.4980    -7.0640     3.3810 h1         1 AE4       0.034200
     37 H142         6.4400    -7.8930     4.9430 h1         1 AE4       0.034200
     38 H151         8.6830    -6.0440     4.0580 h1         1 AE4       0.033700
     39 H152         8.7470    -7.8090     3.9690 h1         1 AE4       0.033700
     40 H171        10.5560    -7.8130     5.3330 h1         1 AE4       0.033200
     41 H172        10.4930    -6.0470     5.4220 h1         1 AE4       0.033200
     42 H181        10.1940    -6.2300     7.9020 h1         1 AE4       0.028200
     43 H182        11.7350    -6.8950     7.3440 h1         1 AE4       0.028200
     44 H19         10.7080    -8.3560     8.7610 ho         1 AE4       0.399000
@<TRIPOS>BOND
     1     1     2 1
     2     1    19 1
     3     1    20 1
     4     1    21 1
     5     2     3 1
     6     2    22 1
     7     2    23 1
     8     3     4 1
     9     4     5 1
    10     4    24 1
    11     4    25 1
    12     5     6 1
    13     5    26 1
    14     5    27 1
    15     6     7 1
    16     7     8 1
    17     7    28 1
    18     7    29 1
    19     8    10 1
    20     8    30 1
    21     8    31 1
    22     9    10 1
    23     9    11 1
    24     9    32 1
    25     9    33 1
    26    11    12 1
    27    11    34 1
    28    11    35 1
    29    12    13 1
    30    13    14 1
    31    13    36 1
    32    13    37 1
    33    14    15 1
    34    14    38 1
    35    14    39 1
    36    15    16 1
    37    16    17 1
    38    16    40 1
    39    16    41 1
    40    17    18 1
    41    17    42 1
    42    17    43 1
    43    18    44 1
@<TRIPOS>SUBSTRUCTURE
     1 AE4         1 TEMP              0 ****  ****    0 ROOT
