@<TRIPOS>MOLECULE
AE4
   44    43     1     0     0
SMALL
bcc


@<TRIPOS>ATOM
      1 C2         -0.6470    2.0230    0.7640 c3        1 AE4     -0.097100
      2 C3         -0.2600    0.5700    0.6190 c3        1 AE4      0.131400
      3 O4          1.1420    0.4880    0.8710 os        1 AE4     -0.428600
      4 C5          1.6370   -0.8430    0.7440 c3        1 AE4      0.126400
      5 C6          3.0960   -0.8050    1.1880 c3        1 AE4      0.127400
      6 O7          3.1660   -1.5380    2.4100 os        1 AE4     -0.429600
      7 C8          4.4480   -1.4400    3.0260 c3        1 AE4      0.127400
      8 C9          4.4350   -2.4000    4.2100 c3        1 AE4      0.127400
      9 C11         5.1910   -4.5650    4.7990 c3        1 AE4      0.127400
     10 O10         5.2490   -3.5110    3.8410 os        1 AE4     -0.429600
     11 C12         6.2270   -5.5990    4.3690 c3        1 AE4      0.127400
     12 O13         7.3160   -5.4860    5.2830 os        1 AE4     -0.428600
     13 C14         8.4330   -6.2810    4.8920 c3        1 AE4      0.127400
     14 C15         9.4440   -6.1960    6.0310 c3        1 AE4      0.128400
     15 O16         9.4150   -7.4590    6.6950 os        1 AE4     -0.438600
     16 C17        10.1900   -7.4610    7.8920 c3        1 AE4      0.087400
     17 C18        10.1100   -8.8800    8.4460 c3        1 AE4      0.131400
     18 O19        10.7520   -9.8070    7.5960 oh        1 AE4     -0.600800
     19 H2C1       -0.4120    2.3870    1.7920 hc        1 AE4      0.045033
     20 H2C2       -1.7420    2.1340    0.5770 hc        1 AE4      0.045033
     21 H2C3       -0.0850    2.6510    0.0320 hc        1 AE4      0.045033
     22 H3C1       -0.4750    0.1950   -0.4180 h1        1 AE4      0.024700
     23 H3C2       -0.8110   -0.0720    1.3570 h1        1 AE4      0.024700
     24 H5C1        1.0430   -1.5430    1.3890 h1        1 AE4      0.041700
     25 H5C2        1.5610   -1.1640   -0.3280 h1        1 AE4      0.041700
     26 H6C1        3.7530   -1.2990    0.4250 h1        1 AE4      0.043200
     27 H6C2        3.4360    0.2530    1.3500 h1        1 AE4      0.043200
     28 H8C1        5.2530   -1.7200    2.2950 h1        1 AE4      0.043700
     29 H8C2        4.6080   -0.3870    3.3780 h1        1 AE4      0.043700
     30 H9C1        4.8730   -1.9080    5.1180 h1        1 AE4      0.043700
     31 H9C2        3.3890   -2.7420    4.4340 h1        1 AE4      0.043700
     32 H111        4.1630   -5.0150    4.7910 h1        1 AE4      0.043700
     33 H112        5.4230   -4.1710    5.8240 h1        1 AE4      0.043700
     34 H121        5.7980   -6.6340    4.4360 h1        1 AE4      0.044200
     35 H122        6.5760   -5.4010    3.3210 h1        1 AE4      0.044200
     36 H141        8.1130   -7.3430    4.7210 h1        1 AE4      0.043200
     37 H142        8.8720   -5.8620    3.9480 h1        1 AE4      0.043200
     38 H151        9.1700   -5.3760    6.7460 h1        1 AE4      0.045200
     39 H152       10.4760   -6.0180    5.6280 h1        1 AE4      0.045200
     40 H171       11.2510   -7.1850    7.6550 h1        1 AE4      0.039200
     41 H172        9.7630   -6.7260    8.6230 h1        1 AE4      0.039200
     42 H181        9.0370   -9.1720    8.5970 h1        1 AE4      0.053200
     43 H182       10.6660   -8.9400    9.4180 h1        1 AE4      0.053200
     44 H19        10.3340   -9.7290    6.7290 ho        1 AE4      0.412000
@<TRIPOS>BOND
     1    1    2 1   
     2    1   19 1   
     3    1   20 1   
     4    1   21 1   
     5    2    3 1   
     6    2   22 1   
     7    2   23 1   
     8    3    4 1   
     9    4    5 1   
    10    4   24 1   
    11    4   25 1   
    12    5    6 1   
    13    5   26 1   
    14    5   27 1   
    15    6    7 1   
    16    7    8 1   
    17    7   28 1   
    18    7   29 1   
    19    8   10 1   
    20    8   30 1   
    21    8   31 1   
    22    9   10 1   
    23    9   11 1   
    24    9   32 1   
    25    9   33 1   
    26   11   12 1   
    27   11   34 1   
    28   11   35 1   
    29   12   13 1   
    30   13   14 1   
    31   13   36 1   
    32   13   37 1   
    33   14   15 1   
    34   14   38 1   
    35   14   39 1   
    36   15   16 1   
    37   16   17 1   
    38   16   40 1   
    39   16   41 1   
    40   17   18 1   
    41   17   42 1   
    42   17   43 1   
    43   18   44 1   
@<TRIPOS>SUBSTRUCTURE
     1 AE4         1 TEMP              0 ****  ****    0 ROOT
