@<TRIPOS>MOLECULE
AE6
   48    52     1     0     0
SMALL
bcc


@<TRIPOS>ATOM
      1 O3          1.2880   -2.5670    1.0240 o         1 AE6     -0.619500
      2 C21         2.1640   -1.6830    0.9780 c         1 AE6      0.694700
      3 N3          3.3430   -1.8840    1.7170 n         1 AE6     -0.517400
      4 C18         4.3750   -0.9520    1.7260 ca        1 AE6      0.564200
      5 N2          5.5080   -1.2130    2.4720 nb        1 AE6     -0.707000
      6 C17         6.4810   -0.3070    2.4600 ca        1 AE6      0.485200
      7 C22         2.0490   -0.4400    0.2040 cc        1 AE6     -0.232200
      8 C23         3.0390    0.4760    0.2030 cd        1 AE6     -0.025200
      9 C19         4.2410    0.2590    0.9640 ca        1 AE6     -0.253100
     10 C20         5.2930    1.1850    0.9940 ca        1 AE6     -0.019000
     11 C16         6.4410    0.9210    1.7420 ca        1 AE6     -0.229100
     12 C15         7.5130    1.8940    1.7710 ce        1 AE6     -0.033200
     13 C14         8.8050    1.7220    2.0690 cf        1 AE6     -0.224200
     14 C13         9.4890    0.4460    2.3970 c         1 AE6      0.637300
     15 O2          9.6470   -0.4640    1.5610 o         1 AE6     -0.572100
     16 N1          9.9190    0.2750    3.7120 n         1 AE6     -0.445800
     17 C11        10.9790   -0.6700    4.0990 cy        1 AE6      0.075500
     18 C12        10.4160    1.3510    4.5790 cy        1 AE6      0.075500
     19 C10        11.5660    0.4090    5.0610 cy        1 AE6     -0.047500
     20 C7         11.5580    0.0940    6.4890 cc        1 AE6      0.035900
     21 O1         11.5180   -1.2810    6.8160 os        1 AE6     -0.196200
     22 C4         11.5410   -1.3370    8.2100 ca        1 AE6      0.066100
     23 C3         11.5150   -2.4870    8.9920 ca        1 AE6     -0.122000
     24 C2         11.5440   -2.2970   10.3720 ca        1 AE6     -0.110000
     25 C8         11.6080    0.8840    7.6200 cd        1 AE6     -0.110400
     26 C9         11.6720    2.3440    7.6970 c3        1 AE6     -0.030900
     27 C5         11.5960   -0.0200    8.7600 ca        1 AE6     -0.102800
     28 C6         11.6220    0.1330   10.1440 ca        1 AE6     -0.082000
     29 C1         11.5960   -1.0130   10.9360 ca        1 AE6     -0.148000
     30 H1          3.4370   -2.7290    2.2410 hn        1 AE6      0.349500
     31 H2          7.3680   -0.5730    3.0690 h4        1 AE6      0.047100
     32 H3          1.1130   -0.3220   -0.3600 ha        1 AE6      0.168000
     33 H4          2.9600    1.4100   -0.3760 ha        1 AE6      0.143000
     34 H5          5.2040    2.1190    0.4170 ha        1 AE6      0.142000
     35 H6          7.1860    2.9180    1.4950 ha        1 AE6      0.127000
     36 H7          9.4930    2.5860    2.0450 ha        1 AE6      0.142000
     37 H8         11.6570   -0.9720    3.2640 h1        1 AE6      0.072950
     38 H9         10.5630   -1.5740    4.6050 h1        1 AE6      0.072950
     39 H10         9.6730    1.6250    5.3670 h1        1 AE6      0.072950
     40 H11        10.7670    2.2670    4.0460 h1        1 AE6      0.072950
     41 H12        12.5810    0.7640    4.7560 hc        1 AE6      0.086700
     42 H13        11.4720   -3.4860    8.5410 ha        1 AE6      0.152000
     43 H14        11.5240   -3.1750   11.0360 ha        1 AE6      0.137000
     44 H15        12.7270    2.6780    7.8720 hc        1 AE6      0.046033
     45 H16        11.0430    2.7190    8.5430 hc        1 AE6      0.046033
     46 H17        11.3090    2.8100    6.7460 hc        1 AE6      0.046033
     47 H18        11.6620    1.1340   10.5960 ha        1 AE6      0.138000
     48 H19        11.6170   -0.9120   12.0320 ha        1 AE6      0.134000
@<TRIPOS>BOND
     1    1    2 2   
     2    2    3 1   
     3    2    7 1   
     4    3    4 1   
     5    3   30 1   
     6    4    5 ar  
     7    4    9 ar  
     8    5    6 ar  
     9    6   11 ar  
    10    6   31 1   
    11    7    8 2   
    12    7   32 1   
    13    8    9 1   
    14    8   33 1   
    15    9   10 ar  
    16   10   11 ar  
    17   10   34 1   
    18   11   12 1   
    19   12   13 2   
    20   12   35 1   
    21   13   14 1   
    22   13   36 1   
    23   14   15 2   
    24   14   16 1   
    25   16   17 1   
    26   16   18 1   
    27   17   19 1   
    28   17   37 1   
    29   17   38 1   
    30   18   19 1   
    31   18   39 1   
    32   18   40 1   
    33   19   20 1   
    34   19   41 1   
    35   20   21 1   
    36   20   25 2   
    37   21   22 1   
    38   22   23 ar  
    39   22   27 ar  
    40   23   24 ar  
    41   23   42 1   
    42   24   29 ar  
    43   24   43 1   
    44   25   26 1   
    45   25   27 1   
    46   26   44 1   
    47   26   45 1   
    48   26   46 1   
    49   27   28 ar  
    50   28   29 ar  
    51   28   47 1   
    52   29   48 1   
@<TRIPOS>SUBSTRUCTURE
     1 AE6         1 TEMP              0 ****  ****    0 ROOT
