@<TRIPOS>MOLECULE
AE7
   41    45     1     0     0
SMALL
bcc


@<TRIPOS>ATOM
      1 NAL          0.0000     0.0000     0.0000 nu         1 AE7       0.099600
      2 CAW          1.3820     0.0000     0.0000 ca         1 AE7      -0.093400
      3 CAJ          2.2990     0.0000     1.0540 ca         1 AE7      -0.084000
      4 CAF          3.6530    -0.0000     0.7960 ca         1 AE7      -0.096000
      5 CAG          4.1240    -0.0000    -0.5040 ca         1 AE7      -0.101000
      6 CAK          3.2240    -0.0020    -1.5600 ca         1 AE7      -0.054000
      7 CAX          1.8790    -0.0000    -1.3040 ca         1 AE7       0.203500
      8 SAO          0.4330    -0.0000    -2.3200 sx         1 AE7      -0.509500
      9 CAU         -0.6300     0.0010    -1.1760 c2         1 AE7      -0.374100
     10 NAZ         -1.9670     0.0010    -1.3480 na         1 AE7       0.598200
     11 CAS         -2.6250    -0.0000    -2.5440 cc         1 AE7       0.047800
     12 OAC         -2.0510     0.0000    -3.7760 oh         1 AE7      -0.453100
     13 NAM         -2.9310    -0.0050    -0.3310 nc         1 AE7      -0.704800
     14 CAQ         -4.1220    -0.0040    -0.8900 cd         1 AE7       0.426600
     15 CAA         -5.4380    -0.0090    -0.1560 c3         1 AE7      -0.014400
     16 CAV         -3.9610    -0.0010    -2.2760 cd         1 AE7      -0.375600
     17 CAY         -5.0690    -0.0000    -3.2980 c3         1 AE7       0.354700
     18 OAN         -4.7650    -0.9410    -4.3640 os         1 AE7      -0.378900
     19 CAP         -4.6900    -0.2740    -5.5270 c          1 AE7       0.820200
     20 OAB         -4.4490    -0.7810    -6.6050 o          1 AE7      -0.616500
     21 CAR         -4.9400     1.1620    -5.3090 ca         1 AE7      -0.203600
     22 CAT         -5.1760     1.3570    -3.9450 ca         1 AE7      -0.110300
     23 CAI         -5.4400     2.6170    -3.4590 ca         1 AE7      -0.076000
     24 CAE         -5.4730     3.6990    -4.3240 ca         1 AE7      -0.067000
     25 CAD         -5.2400     3.5160    -5.6760 ca         1 AE7      -0.115000
     26 CAH         -4.9740     2.2580    -6.1740 ca         1 AE7      -0.005000
     27 H1           1.9450     0.0000     2.0780 ha         1 AE7       0.100000
     28 H2           4.3550     0.0000     1.6210 ha         1 AE7       0.104000
     29 H3           5.1910    -0.0010    -0.6970 ha         1 AE7       0.104000
     30 H5           3.5840    -0.0020    -2.5820 ha         1 AE7       0.107000
     31 H8          -5.9480     0.9330    -0.3220 hc         1 AE7       0.016367
     32 H9          -6.0540    -0.8210    -0.5230 hc         1 AE7       0.016367
     33 H10         -5.2600    -0.1420     0.9040 hc         1 AE7       0.016367
     34 H11         -6.0120    -0.2620    -2.8310 h1         1 AE7       0.043700
     35 H12         -5.6230     2.7630    -2.4010 ha         1 AE7       0.107000
     36 H13         -5.6810     4.6910    -3.9400 ha         1 AE7       0.106000
     37 H14         -5.2670     4.3670    -6.3470 ha         1 AE7       0.109000
     38 H15         -4.7930     2.1200    -7.2330 ha         1 AE7       0.115000
     39 H16         -0.5140     0.0000     0.8590 hn         1 AE7       0.253800
     40 H18          0.2940    -0.0000    -3.6400 hs         1 AE7       0.252000
     41 H6          -1.8020    -0.8790    -4.0080 ho         1 AE7       0.428000
@<TRIPOS>BOND
     1     1     2 1   
     2     1     9 1   
     3     1    39 1   
     4     2     3 ar  
     5     2     7 ar  
     6     3     4 ar  
     7     3    27 1   
     8     4     5 ar  
     9     4    28 1   
    10     5     6 ar  
    11     5    29 1   
    12     6     7 ar  
    13     6    30 1   
    14     7     8 1   
    15     8     9 2   
    16     8    40 1   
    17     9    10 1   
    18    10    11 1   
    19    10    13 1   
    20    11    12 1   
    21    11    16 2   
    22    12    41 1   
    23    13    14 2   
    24    14    15 1   
    25    14    16 1   
    26    15    31 1   
    27    15    32 1   
    28    15    33 1   
    29    16    17 1   
    30    17    18 1   
    31    17    22 1   
    32    17    34 1   
    33    18    19 1   
    34    19    20 2   
    35    19    21 1   
    36    21    22 ar  
    37    21    26 ar  
    38    22    23 ar  
    39    23    24 ar  
    40    23    35 1   
    41    24    25 ar  
    42    24    36 1   
    43    25    26 ar  
    44    25    37 1   
    45    26    38 1   
@<TRIPOS>SUBSTRUCTURE
     1 AE7         1 TEMP              0 ****  ****    0 ROOT
