@<TRIPOS>MOLECULE
molecule
   60    65     1     0     0
SMALL
bcc


@<TRIPOS>ATOM
      1 C13          0.0000     0.0000     0.0000 ca         1 AE8      -0.222300
      2 C20          1.3150    -0.0020     2.3920 ca         1 AE8       0.427200
      3 C28         -6.0020    -6.3210    -1.7150 ca         1 AE8       0.342200
      4 C25         -7.6550    -4.6750    -1.1940 ca         1 AE8      -0.155300
      5 C24         -8.5890    -5.6660    -1.4190 ca         1 AE8      -0.037700
      6 C14          1.3900     0.0000     0.0000 ca         1 AE8       0.092100
      7 C19          2.0560     0.0000     1.2230 ca         1 AE8      -0.064200
      8 C26         -6.3250    -5.0140    -1.3460 ca         1 AE8       0.126600
      9 C30         -8.2130    -6.9600    -1.7880 ca         1 AE8       0.372100
     10 C12         -0.6680    -0.0030     1.2100 ca         1 AE8       0.419600
     11 C31         -9.2850    -7.9340    -2.0040 cc         1 AE8      -0.130800
     12 C32        -10.5660    -7.5150    -1.8310 cd         1 AE8      -0.239200
     13 C33        -10.8650    -6.1850    -1.4560 c          1 AE8       0.709700
     14 C6          -4.5990    -2.6870     2.0960 c3         1 AE8      -0.074900
     15 C8          -4.6610    -1.4430    -0.0670 c3         1 AE8      -0.074900
     16 C22         -9.9000    -3.8590    -0.8690 c3         1 AE8       0.081000
     17 C5          -6.1280    -2.7530     2.0590 c3         1 AE8       0.160800
     18 C9          -6.1880    -1.5450    -0.0410 c3         1 AE8       0.160800
     19 C16          3.4580     0.3710    -1.1030 c3         1 AE8       0.098400
     20 C17          4.1030    -0.3690     0.0760 c3         1 AE8       0.098400
     21 C7          -4.1300    -1.4220     1.3700 c3         1 AE8       0.163500
     22 C2          -8.4170    -3.4310    -0.8210 c3         1 AE8       0.207100
     23 C11         -2.1740    -0.0030     1.2260 c3         1 AE8       0.118500
     24 N29         -6.9200    -7.2430    -1.9240 nb         1 AE8      -0.609000
     25 N21         -0.0050    -0.0040     2.3500 nb         1 AE8      -0.691000
     26 N23         -9.8850    -5.2780    -1.2550 n          1 AE8      -0.337000
     27 N4          -6.5850    -2.7710     0.6640 n3         1 AE8      -0.722600
     28 N10         -2.6630    -1.3820     1.3500 n7         1 AE8      -0.812200
     29 O15          2.0770    -0.0040    -1.1700 os         1 AE8      -0.313900
     30 O18          3.4150     0.0060     1.2750 os         1 AE8      -0.316900
     31 O1          -8.1670    -2.3900    -1.7680 oh         1 AE8      -0.584800
     32 F27         -5.3550    -4.0960    -1.1420 f          1 AE8      -0.097900
     33 H13         -0.5420     0.1940    -0.9180 ha         1 AE8       0.156000
     34 H20          1.8210    -0.0040     3.3500 h4         1 AE8       0.036100
     35 H28         -4.9590    -6.5870    -1.8340 h4         1 AE8       0.043100
     36 H31         -9.0640    -8.9550    -2.2920 ha         1 AE8       0.160000
     37 H111        -2.5260     0.5820     2.0670 h1         1 AE8       0.046200
     38 H112        -2.5460     0.4300     0.3050 h1         1 AE8       0.046200
     39 H32        -11.3770    -8.2160    -1.9850 ha         1 AE8       0.172000
     40 H61C        -4.2640    -2.6560     3.1250 hc         1 AE8       0.057450
     41 H62C        -4.1890    -3.5590     1.6020 hc         1 AE8       0.057450
     42 H51C        -6.5370    -1.8840     2.5610 h1         1 AE8       0.040950
     43 H52C        -6.4600    -3.6550     2.5580 h1         1 AE8       0.040950
     44 H7          -4.5140    -0.5490     1.8830 h1         1 AE8       0.022700
     45 H81C        -4.3700    -0.5300    -0.5720 hc         1 AE8       0.057450
     46 H82C        -4.2520    -2.2980    -0.5900 hc         1 AE8       0.057450
     47 H91C        -6.5640    -1.5760    -1.0560 h1         1 AE8       0.040950
     48 H92C        -6.5970    -0.6850     0.4750 h1         1 AE8       0.040950
     49 H221       -10.4340    -3.2760    -1.6100 h1         1 AE8       0.074200
     50 H222       -10.3540    -3.7430     0.1070 h1         1 AE8       0.074200
     51 H161         3.9550     0.0920    -2.0240 h1         1 AE8       0.070700
     52 H162         3.5370     1.4400    -0.9490 h1         1 AE8       0.070700
     53 H171         4.0160    -1.4390    -0.0740 h1         1 AE8       0.070700
     54 H172         5.1470    -0.0900     0.1530 h1         1 AE8       0.070700
     55 H10         -2.3070    -1.7880     2.1930 hn         1 AE8       0.364800
     56 H1          -8.9400    -2.2460    -2.2890 ho         1 AE8       0.407000
     57 C3          -8.0380    -2.9740     0.5890 c3         1 AE8       0.168800
     58 O34        -12.0290    -5.8510    -1.3120 o          1 AE8      -0.632500
     59 H31C        -8.3340    -3.7300     1.3060 h1         1 AE8       0.046700
     60 H32C        -8.5440    -2.0430     0.8150 h1         1 AE8       0.046700
@<TRIPOS>BOND
     1     1     6 ar
     2     1    10 ar
     3     2     7 ar
     4     2    25 ar
     5     3     8 ar
     6     3    24 ar
     7     4     5 ar
     8     4     8 ar
     9     4    22 1
    10     5     9 ar
    11     5    26 1
    12     6     7 ar
    13     6    29 1
    14     7    30 1
    15     8    32 1
    16     9    11 1
    17     9    24 ar
    18    10    23 1
    19    10    25 ar
    20    11    12 2
    21    12    13 1
    22    13    26 1
    23    13    58 2
    24    14    17 1
    25    14    21 1
    26    15    18 1
    27    15    21 1
    28    16    22 1
    29    16    26 1
    30    17    27 1
    31    18    27 1
    32    19    20 1
    33    19    29 1
    34    20    30 1
    35    21    28 1
    36    22    57 1
    37    22    31 1
    38    23    28 1
    39    57    27 1
    40     1    33 1
    41     2    34 1
    42     3    35 1
    43    11    36 1
    44    23    37 1
    45    23    38 1
    46    12    39 1
    47    14    40 1
    48    14    41 1
    49    17    42 1
    50    17    43 1
    51    21    44 1
    52    15    45 1
    53    15    46 1
    54    18    47 1
    55    18    48 1
    56    16    49 1
    57    16    50 1
    58    19    51 1
    59    19    52 1
    60    20    53 1
    61    20    54 1
    62    28    55 1
    63    57    59 1
    64    57    60 1
    65    31    56 1
@<TRIPOS>SUBSTRUCTURE
     1 AE8         1 TEMP              0 ****  ****    0 ROOT
