@<TRIPOS>MOLECULE
AE8
   60    65     1     0     0
SMALL
bcc


@<TRIPOS>ATOM
      1 C13          0.0000     0.0000     0.0000 ca         1 AE8      -0.196300
      2 C20          1.3150    -0.0020     2.3920 ca         1 AE8       0.403200
      3 C28         -6.0020    -6.3210    -1.7150 ca         1 AE8       0.326200
      4 C25         -7.6550    -4.6750    -1.1940 ca         1 AE8      -0.163300
      5 C24         -8.5890    -5.6660    -1.4190 ca         1 AE8      -0.179700
      6 C14          1.3900     0.0000     0.0000 ca         1 AE8       0.095100
      7 C19          2.0560     0.0000     1.2230 ca         1 AE8      -0.053200
      8 C26         -6.3250    -5.0140    -1.3460 ca         1 AE8       0.120600
      9 C30         -8.2130    -6.9600    -1.7880 ca         1 AE8       0.333100
     10 C12         -0.6680    -0.0030     1.2100 ca         1 AE8       0.366600
     11 C31         -9.2850    -7.9340    -2.0040 cc         1 AE8      -0.104800
     12 C32        -10.5660    -7.5150    -1.8310 cd         1 AE8      -0.218200
     13 C33        -10.8650    -6.1850    -1.4560 c          1 AE8       0.619700
     14 C6          -4.5990    -2.6870     2.0960 c3         1 AE8      -0.029400
     15 C8          -4.6610    -1.4430    -0.0670 c3         1 AE8      -0.029400
     16 C22         -9.9000    -3.8590    -0.8690 c3         1 AE8       0.008000
     17 C5          -6.1280    -2.7530     2.0590 c3         1 AE8       0.145800
     18 C9          -6.1880    -1.5450    -0.0410 c3         1 AE8       0.145800
     19 C16          3.4580     0.3710    -1.1030 c3         1 AE8       0.169400
     20 C17          4.1030    -0.3690     0.0760 c3         1 AE8       0.169400
     21 C7          -4.1300    -1.4220     1.3700 c3         1 AE8       0.115500
     22 C2          -8.4170    -3.4310    -0.8210 c3         1 AE8       0.243100
     23 C11         -2.1740    -0.0030     1.2260 c3         1 AE8       0.101500
     24 N29         -6.9200    -7.2430    -1.9240 nb         1 AE8      -0.490000
     25 N21         -0.0050    -0.0040     2.3500 nb         1 AE8      -0.578000
     26 N23         -9.8850    -5.2780    -1.2550 n          1 AE8       0.077000
     27 N4          -6.5850    -2.7710     0.6640 n3         1 AE8      -0.530600
     28 N10         -2.6630    -1.3820     1.3500 n7         1 AE8      -0.577200
     29 O15          2.0770    -0.0040    -1.1700 os         1 AE8      -0.291900
     30 O18          3.4150     0.0060     1.2750 os         1 AE8      -0.290900
     31 O1          -8.1670    -2.3900    -1.7680 oh         1 AE8      -0.569800
     32 F27         -5.3550    -4.0960    -1.1420 f          1 AE8      -0.103900
     33 H13         -0.5420     0.1940    -0.9180 ha         1 AE8       0.129000
     34 H20          1.8210    -0.0040     3.3500 h4         1 AE8      -0.008900
     35 H28         -4.9590    -6.5870    -1.8340 h4         1 AE8      -0.000900
     36 H31         -9.0640    -8.9550    -2.2920 ha         1 AE8       0.122000
     37 H111        -2.5260     0.5820     2.0670 h1         1 AE8       0.015700
     38 H112        -2.5460     0.4300     0.3050 h1         1 AE8       0.015700
     39 H32        -11.3770    -8.2160    -1.9850 ha         1 AE8       0.138000
     40 H61C        -4.2640    -2.6560     3.1250 hc         1 AE8       0.029200
     41 H62C        -4.1890    -3.5590     1.6020 hc         1 AE8       0.029200
     42 H51C        -6.5370    -1.8840     2.5610 h1         1 AE8       0.016700
     43 H52C        -6.4600    -3.6550     2.5580 h1         1 AE8       0.016700
     44 H7          -4.5140    -0.5490     1.8830 h1         1 AE8       0.008700
     45 H81C        -4.3700    -0.5300    -0.5720 hc         1 AE8       0.029200
     46 H82C        -4.2520    -2.2980    -0.5900 hc         1 AE8       0.029200
     47 H91C        -6.5640    -1.5760    -1.0560 h1         1 AE8       0.016700
     48 H92C        -6.5970    -0.6850     0.4750 h1         1 AE8       0.016700
     49 H221       -10.4340    -3.2760    -1.6100 h1         1 AE8       0.043700
     50 H222       -10.3540    -3.7430     0.1070 h1         1 AE8       0.043700
     51 H161         3.9550     0.0920    -2.0240 h1         1 AE8       0.026700
     52 H162         3.5370     1.4400    -0.9490 h1         1 AE8       0.026700
     53 H171         4.0160    -1.4390    -0.0740 h1         1 AE8       0.026700
     54 H172         5.1470    -0.0900     0.1530 h1         1 AE8       0.026700
     55 H10         -2.3070    -1.7880     2.1930 hn         1 AE8       0.263800
     56 H1          -8.9400    -2.2460    -2.2890 ho         1 AE8       0.397000
     57 C3          -8.0380    -2.9740     0.5890 c3         1 AE8       0.147800
     58 O34        -12.0290    -5.8510    -1.3120 o          1 AE8      -0.679500
     59 H31C        -8.3340    -3.7300     1.3060 h1         1 AE8       0.020700
     60 H32C        -8.5440    -2.0430     0.8150 h1         1 AE8       0.020700
@<TRIPOS>BOND
     1     1     6 ar  
     2     1    10 ar  
     3     1    33 1   
     4     2     7 ar  
     5     2    25 ar  
     6     2    34 1   
     7     3     8 ar  
     8     3    24 ar  
     9     3    35 1   
    10     4     5 ar  
    11     4     8 ar  
    12     4    22 1   
    13     5     9 ar  
    14     5    26 1   
    15     6     7 ar  
    16     6    29 1   
    17     7    30 1   
    18     8    32 1   
    19     9    11 1   
    20     9    24 ar  
    21    10    23 1   
    22    10    25 ar  
    23    11    12 2   
    24    11    36 1   
    25    12    13 1   
    26    12    39 1   
    27    13    26 1   
    28    13    58 2   
    29    14    17 1   
    30    14    21 1   
    31    14    40 1   
    32    14    41 1   
    33    15    18 1   
    34    15    21 1   
    35    15    45 1   
    36    15    46 1   
    37    16    22 1   
    38    16    26 1   
    39    16    49 1   
    40    16    50 1   
    41    17    27 1   
    42    17    42 1   
    43    17    43 1   
    44    18    27 1   
    45    18    47 1   
    46    18    48 1   
    47    19    20 1   
    48    19    29 1   
    49    19    51 1   
    50    19    52 1   
    51    20    30 1   
    52    20    53 1   
    53    20    54 1   
    54    21    28 1   
    55    21    44 1   
    56    22    31 1   
    57    22    57 1   
    58    23    28 1   
    59    23    37 1   
    60    23    38 1   
    61    27    57 1   
    62    28    55 1   
    63    31    56 1   
    64    57    59 1   
    65    57    60 1   
@<TRIPOS>SUBSTRUCTURE
     1 AE8         1 TEMP              0 ****  ****    0 ROOT
