@<TRIPOS>MOLECULE
AE9
   11    10     1     0     0
SMALL
bcc


@<TRIPOS>ATOM
      1 NAS         0.5460    0.6390   -0.6810 n2        1 AE9     -0.452200
      2 CAM         1.6710   -0.1060   -0.1580 c3        1 AE9      0.162800
      3 CAO         2.0350    0.1380    1.3110 c3        1 AE9      0.103400
      4 O1          0.9880   -0.4090    2.0960 oh        1 AE9     -0.612800
      5 NAC        -1.6880    0.5860    0.1360 n1        1 AE9     -0.051000
      6 NAT        -0.6000    0.5360   -0.1780 n1        1 AE9      0.232000
      7 H1          1.2180   -0.2530    3.0190 ho        1 AE9      0.409000
      8 HAO1        3.0020   -0.3850    1.5410 h1        1 AE9      0.034200
      9 HAO2        2.1490    1.2330    1.5270 h1        1 AE9      0.034200
     10 HAM1        1.5440   -1.2170   -0.3070 h1        1 AE9      0.069700
     11 HAM2        2.5270    0.2490   -0.7990 h1        1 AE9      0.069700
@<TRIPOS>BOND
     1    1    2 1   
     2    1    6 1   
     3    2    3 1   
     4    2   10 1   
     5    2   11 1   
     6    3    4 1   
     7    3    8 1   
     8    3    9 1   
     9    4    7 1   
    10    5    6 3   
@<TRIPOS>SUBSTRUCTURE
     1 AE9         1 TEMP              0 ****  ****    0 ROOT
