@<TRIPOS>MOLECULE
molecule
   38    39     1     0     0
SMALL
bcc


@<TRIPOS>ATOM
      1 C4           0.0000     0.0000     0.0000 ca         1 AED       0.161100
      2 C5          -2.7070    -1.2570     1.9230 c3         1 AED      -0.070900
      3 C6          -2.7060     1.2420     1.9340 c3         1 AED      -0.070900
      4 C7           1.3850     0.0010     2.3950 ca         1 AED      -0.161300
      5 C8           1.3870     0.0000     0.0000 ca         1 AED      -0.190000
      6 C10         -4.2370    -1.2550     1.9270 c3         1 AED      -0.079400
      7 C13          2.1400     0.0020     3.6990 c3         1 AED      -0.044100
      8 C15          2.3950     1.4450     4.1400 c3         1 AED       0.090800
      9 O9          -0.6810    -0.0010    -1.1760 oh         1 AED      -0.490100
     10 C12          2.0770     0.0000     1.1980 ca         1 AED      -0.088000
     11 N16          3.1310     1.4460     5.4110 nz         1 AED      -0.811600
     12 C3           0.0020    -0.0100     2.3980 ca         1 AED      -0.085000
     13 C1          -0.6910    -0.0050     1.2030 ca         1 AED      -0.082300
     14 C2          -2.1990    -0.0050     1.2070 c3         1 AED      -0.027400
     15 C14         -4.7450    -0.0090     2.6550 c3         1 AED      -0.081400
     16 C11         -4.2370     1.2420     1.9370 c3         1 AED      -0.079400
     17 H6          -2.3470     2.1270     1.4230 hc         1 AED       0.037950
     18 H6A         -2.3440     1.2360     2.9550 hc         1 AED       0.037950
     19 H8           1.9290    -0.0010    -0.9380 ha         1 AED       0.151000
     20 H10         -4.5970    -2.1410     2.4360 hc         1 AED       0.049950
     21 H10A        -4.6000    -1.2480     0.9060 hc         1 AED       0.049950
     22 H13          3.0870    -0.5090     3.5690 hc         1 AED       0.065700
     23 H13A         1.5550    -0.5090     4.4550 hc         1 AED       0.065700
     24 H15          2.9790     1.9560     3.3840 hx         1 AED       0.115700
     25 H15A         1.4480     1.9550     4.2710 hx         1 AED       0.115700
     26 HO9         -0.2380    -0.5570    -1.7950 ho         1 AED       0.435000
     27 H12          3.1600    -0.0000     1.1990 ha         1 AED       0.130000
     28 HN16         4.0050     0.9750     5.2900 hn         1 AED       0.455133
     29 HN1A         2.5910     0.9740     6.1090 hn         1 AED       0.455133
     30 H3          -0.5370    -0.0140     3.3370 ha         1 AED       0.137000
     31 H2          -2.5660    -0.0010     0.1880 hc         1 AED       0.087700
     32 H14         -4.3790    -0.0140     3.6740 hc         1 AED       0.044700
     33 H14A        -5.8290    -0.0090     2.6550 hc         1 AED       0.044700
     34 H11         -4.5990     1.2440     0.9160 hc         1 AED       0.049950
     35 H11A        -4.5950     2.1240     2.4550 hc         1 AED       0.049950
     36 H5          -2.3490    -2.1380     1.4050 hc         1 AED       0.037950
     37 H163         3.2790     2.3890     5.7100 hn         1 AED       0.455133
     38 H5A         -2.3450    -1.2590     2.9440 hc         1 AED       0.037950
@<TRIPOS>BOND
     1     1     5 ar
     2     1     9 1
     3     1    13 ar
     4     2     6 1
     5     2    14 1
     6     3    14 1
     7     3    16 1
     8     4     7 1
     9     4    10 ar
    10     4    12 ar
    11     5    10 ar
    12     6    15 1
    13     7     8 1
    14     8    11 1
    15    12    13 ar
    16    13    14 1
    17    15    16 1
    18     2    36 1
    19     2    38 1
    20     3    17 1
    21     3    18 1
    22     5    19 1
    23     6    20 1
    24     6    21 1
    25     7    22 1
    26     7    23 1
    27     8    24 1
    28     8    25 1
    29     9    26 1
    30    10    27 1
    31    11    28 1
    32    11    29 1
    33    12    30 1
    34    14    31 1
    35    15    32 1
    36    15    33 1
    37    16    34 1
    38    16    35 1
    39    37    11 1
@<TRIPOS>SUBSTRUCTURE
     1 AED         1 TEMP              0 ****  ****    0 ROOT
