@<TRIPOS>MOLECULE
molecule
   65    69     1     0     0
SMALL
bcc


@<TRIPOS>ATOM
      1 CAQ          0.0000     0.0000     0.0000 c3         1 AEE       0.131800
      2 CAO          1.5300     0.0000     0.0000 c3         1 AEE       0.134800
      3 NBF          2.0230     0.0000     1.3830 n3         1 AEE      -0.676600
      4 CAN          3.4860     0.1200     1.3090 c3         1 AEE       0.133800
      5 CAA          4.0470     0.3760     2.7090 c3         1 AEE      -0.097100
      6 CAP          1.5300     1.2310     2.0110 c3         1 AEE       0.134800
      7 CAR          0.0000     1.2310     2.0110 c3         1 AEE       0.131800
      8 NBG         -0.4930     1.2310     0.6280 n3         1 AEE      -0.668600
      9 CAS         -1.9550     1.1110     0.7030 c3         1 AEE       0.180100
     10 CAX         -2.5090     2.2240     1.5540 ca         1 AEE      -0.079300
     11 CAI         -2.8680     3.4250     0.9700 ca         1 AEE      -0.116000
     12 CAK         -3.3750     4.4480     1.7440 ca         1 AEE      -0.115000
     13 CAJ         -2.6610     2.0380     2.9170 ca         1 AEE      -0.116000
     14 CAL         -3.1620     3.0540     3.7040 ca         1 AEE      -0.115000
     15 CAY         -3.5270     4.2680     3.1200 ca         1 AEE      -0.036800
     16 CBA         -4.0690     5.3610     3.9560 cc         1 AEE      -0.013300
     17 NAW         -5.1080     6.1950     3.6000 na         1 AEE      -0.265100
     18 CAM         -3.6270     5.6940     5.1940 cd         1 AEE      -0.151200
     19 C5          -4.4380     6.8200     5.6430 ca         1 AEE      -0.409400
     20 C4          -5.3520     7.0900     4.6050 ca         1 AEE       0.524800
     21 N3          -6.2230     8.0850     4.7680 nb         1 AEE      -0.808000
     22 C2          -6.2290     8.7990     5.8730 ca         1 AEE       0.742900
     23 N1          -5.3910     8.5800     6.8700 nb         1 AEE      -0.844000
     24 C6          -4.4840     7.6100     6.8030 ca         1 AEE       0.776200
     25 NAV         -3.6090     7.3850     7.8490 nu         1 AEE      -0.896900
     26 CBE         -3.6730     8.2190     9.0510 c3         1 AEE       0.287800
     27 CAB         -2.8530     9.4930     8.8330 c3         1 AEE      -0.104100
     28 CAZ         -3.1140     7.4560    10.2230 ca         1 AEE      -0.096300
     29 CAG         -3.7200     7.5480    11.4620 ca         1 AEE      -0.122500
     30 CAD         -3.2070     6.8480    12.5370 ca         1 AEE      -0.123500
     31 CAC         -2.0860     6.0560    12.3750 ca         1 AEE      -0.127000
     32 CAE         -1.4800     5.9630    11.1360 ca         1 AEE      -0.123500
     33 CAH         -1.9950     6.6600    10.0590 ca         1 AEE      -0.122500
     34 HAQ1        -0.3590    -0.0510    -1.0210 h1         1 AEE       0.046700
     35 HAQ2        -0.3590    -0.8570     0.5570 h1         1 AEE       0.046700
     36 HAO1         1.8890    -0.8860    -0.5100 h1         1 AEE       0.045950
     37 HAO2         1.8890     0.8860    -0.5100 h1         1 AEE       0.045950
     38 HAN1         3.7480     0.9450     0.6580 h1         1 AEE       0.037700
     39 HAN2         3.9040    -0.7980     0.9140 h1         1 AEE       0.037700
     40 HAA1         3.4580    -0.1650     3.4390 hc         1 AEE       0.039700
     41 HAA2         5.0760     0.0390     2.7530 hc         1 AEE       0.039700
     42 HAA3         4.0060     1.4370     2.9260 hc         1 AEE       0.039700
     43 HAP1         1.8890     1.2820     3.0320 h1         1 AEE       0.045950
     44 HAP2         1.8890     2.0880     1.4540 h1         1 AEE       0.045950
     45 HAR1        -0.3590     2.1170     2.5210 h1         1 AEE       0.046700
     46 HAR2        -0.3590     0.3450     2.5210 h1         1 AEE       0.046700
     47 HAS1        -2.2170     0.1560     1.1430 h1         1 AEE       0.045700
     48 HAS2        -2.3750     1.1760    -0.2940 h1         1 AEE       0.045700
     49 HAI         -2.7500     3.5630    -0.0980 ha         1 AEE       0.138000
     50 HAK         -3.6570     5.3880     1.2850 ha         1 AEE       0.137000
     51 HAJ         -2.3770     1.0940     3.3680 ha         1 AEE       0.138000
     52 HAL         -3.2790     2.9080     4.7710 ha         1 AEE       0.137000
     53 HAW         -5.6080     6.1520     2.7340 hn         1 AEE       0.307700
     54 HAM         -2.7160     5.3390     5.6620 ha         1 AEE       0.152000
     55 H2          -6.9520     9.6000     5.9690 h5         1 AEE       0.057100
     56 HAV         -2.9430     6.6400     7.7920 hn         1 AEE       0.451800
     57 HBE         -4.7040     8.4840     9.2520 h1         1 AEE       0.086700
     58 HAB1        -3.4480    10.2160     8.2890 hc         1 AEE       0.045367
     59 HAB2        -2.5680     9.9080     9.7920 hc         1 AEE       0.045367
     60 HAB3        -1.9630     9.2560     8.2620 hc         1 AEE       0.045367
     61 HAG         -4.5990     8.1690    11.5900 ha         1 AEE       0.130000
     62 HAD         -3.6830     6.9210    13.5080 ha         1 AEE       0.131000
     63 HAC         -1.6820     5.5080    13.2180 ha         1 AEE       0.131000
     64 HAE         -0.6020     5.3410    11.0080 ha         1 AEE       0.131000
     65 HAH         -1.5190     6.5870     9.0890 ha         1 AEE       0.130000
@<TRIPOS>BOND
     1     1     2 1
     2     1     8 1
     3     1    34 1
     4     1    35 1
     5     2     3 1
     6     2    36 1
     7     2    37 1
     8     3     4 1
     9     3     6 1
    10     4     5 1
    11     4    38 1
    12     4    39 1
    13     5    40 1
    14     5    41 1
    15     5    42 1
    16     6     7 1
    17     6    43 1
    18     6    44 1
    19     7     8 1
    20     7    45 1
    21     7    46 1
    22     8     9 1
    23     9    10 1
    24     9    47 1
    25     9    48 1
    26    10    11 ar
    27    10    13 ar
    28    11    12 ar
    29    11    49 1
    30    12    15 ar
    31    12    50 1
    32    13    14 ar
    33    13    51 1
    34    14    15 ar
    35    14    52 1
    36    15    16 1
    37    16    17 1
    38    16    18 2
    39    17    20 1
    40    17    53 1
    41    18    19 1
    42    18    54 1
    43    19    20 ar
    44    19    24 ar
    45    20    21 ar
    46    21    22 ar
    47    22    23 ar
    48    22    55 1
    49    23    24 ar
    50    24    25 1
    51    25    26 1
    52    25    56 1
    53    26    27 1
    54    26    28 1
    55    26    57 1
    56    27    58 1
    57    27    59 1
    58    27    60 1
    59    28    29 ar
    60    28    33 ar
    61    29    30 ar
    62    29    61 1
    63    30    31 ar
    64    30    62 1
    65    31    32 ar
    66    31    63 1
    67    32    33 ar
    68    32    64 1
    69    33    65 1
@<TRIPOS>SUBSTRUCTURE
     1 AEE         1 TEMP              0 ****  ****    0 ROOT
