@<TRIPOS>MOLECULE
molecule
   22    22     1     0     0
SMALL
bcc


@<TRIPOS>ATOM
      1 C4           0.0000     0.0000     0.0000 c3         1 AEF      -0.047100
      2 C5          -1.1920    -1.2010     3.3750 ca         1 AEF      -0.142000
      3 C6          -1.1920     1.2010     3.3740 ca         1 AEF      -0.142000
      4 C7           1.5300     0.0000     0.0000 c3         1 AEF       0.091800
      5 C8          -1.4240     0.0000     4.0300 ca         1 AEF       0.146100
      6 O10         -1.8770     0.0000     5.3110 oh         1 AEF      -0.507100
      7 C3          -0.7320     1.1980     2.0720 ca         1 AEF      -0.099000
      8 C2          -0.7320    -1.1980     2.0720 ca         1 AEF      -0.099000
      9 C1          -0.5020    -0.0000     1.4210 ca         1 AEF      -0.143300
     10 N9           2.0190     0.0000    -1.3860 nz         1 AEF      -0.812600
     11 H4          -0.3610     0.8850    -0.5100 hc         1 AEF       0.068700
     12 H4A         -0.3610    -0.8840    -0.5110 hc         1 AEF       0.068700
     13 H5          -1.3720    -2.1400     3.8840 ha         1 AEF       0.161000
     14 H6          -1.3730     2.1400     3.8830 ha         1 AEF       0.161000
     15 H7           1.8910    -0.8850     0.5100 hx         1 AEF       0.114700
     16 H7A          1.8910     0.8840     0.5110 hx         1 AEF       0.114700
     17 HO10        -1.1440     0.0000     5.9030 ho         1 AEF       0.434000
     18 H3          -0.5510     2.1350     1.5590 ha         1 AEF       0.133000
     19 H2          -0.5500    -2.1360     1.5600 ha         1 AEF       0.133000
     20 HN9          3.0200    -0.0000    -1.3860 hn         1 AEF       0.456467
     21 HN9A         1.6850    -0.8170    -1.8570 hn         1 AEF       0.456467
     22 H93          1.6850     0.8180    -1.8570 hn         1 AEF       0.456467
@<TRIPOS>BOND
     1     1     4 1
     2     1     9 1
     3     2     5 ar
     4     2     8 ar
     5     3     5 ar
     6     3     7 ar
     7     4    10 1
     8     5     6 1
     9     7     9 ar
    10     8     9 ar
    11     1    11 1
    12     1    12 1
    13     2    13 1
    14     3    14 1
    15     4    15 1
    16     4    16 1
    17     6    17 1
    18     7    18 1
    19     8    19 1
    20    10    20 1
    21    10    21 1
    22    22    10 1
@<TRIPOS>SUBSTRUCTURE
     1 AEF         1 TEMP              0 ****  ****    0 ROOT
