@<TRIPOS>MOLECULE
molecule
   25    25     1     0     0
SMALL
bcc


@<TRIPOS>ATOM
      1 C4           0.0000     0.0000     0.0000 c3         1 AEG      -0.048100
      2 C5          -1.1940    -3.5650     0.3390 ca         1 AEG      -0.136500
      3 C6          -1.1930    -2.5500     2.5150 ca         1 AEG      -0.136500
      4 C7           1.5310     0.0000     0.0000 c3         1 AEG       0.102500
      5 C8          -1.4250    -3.6500     1.7040 ca         1 AEG       0.143100
      6 O11         -1.8790    -4.8120     2.2460 oh         1 AEG      -0.510100
      7 C3          -0.7320    -1.3710     1.9620 ca         1 AEG      -0.118500
      8 C2          -0.7330    -2.3830    -0.2100 ca         1 AEG      -0.118500
      9 C1          -0.5020    -1.2880     0.6010 ca         1 AEG      -0.168300
     10 N10          2.0200     0.0000     1.3850 nz         1 AEG      -0.807600
     11 C9           2.0410     1.2480    -0.7220 c3         1 AEG      -0.122100
     12 H4          -0.3610     0.0880    -1.0170 hc         1 AEG       0.088200
     13 H4A         -0.3610     0.8370     0.5850 hc         1 AEG       0.088200
     14 H7           1.8910    -0.8850    -0.5110 hx         1 AEG       0.118700
     15 HO11        -2.8220    -4.8110     2.2460 ho         1 AEG       0.441000
     16 H3          -0.5500    -0.5110     2.5950 ha         1 AEG       0.130500
     17 H2          -0.5520    -2.3160    -1.2760 ha         1 AEG       0.130500
     18 HN10         1.4770     0.6380     1.9310 hn         1 AEG       0.455467
     19 HN1A         1.9390    -0.9210     1.7680 hn         1 AEG       0.455467
     20 H9           3.1230     1.2270    -0.7590 hc         1 AEG       0.076033
     21 H9A          1.6450     1.2700    -1.7300 hc         1 AEG       0.076033
     22 H9B          1.7150     2.1330    -0.1870 hc         1 AEG       0.076033
     23 H5          -1.3750    -4.4240    -0.2960 ha         1 AEG       0.163500
     24 H103         2.9770     0.2940     1.4000 hn         1 AEG       0.455467
     25 H6          -1.3730    -2.6140     3.5820 ha         1 AEG       0.163500
@<TRIPOS>BOND
     1     1     4 1
     2     1     9 1
     3     2     5 ar
     4     2     8 ar
     5     3     5 ar
     6     3     7 ar
     7     4    10 1
     8     4    11 1
     9     5     6 1
    10     7     9 ar
    11     8     9 ar
    12     1    12 1
    13     1    13 1
    14     2    23 1
    15     3    25 1
    16     4    14 1
    17     6    15 1
    18     7    16 1
    19     8    17 1
    20    10    18 1
    21    10    19 1
    22    11    20 1
    23    11    21 1
    24    11    22 1
    25    24    10 1
@<TRIPOS>SUBSTRUCTURE
     1 AEG         1 TEMP              0 ****  ****    0 ROOT
