@<TRIPOS>MOLECULE
AEH
   28    28     1     0     0
SMALL
bcc


@<TRIPOS>ATOM
      1 C4           0.0000     0.0000     0.0000 c3         1 AEH       0.034900
      2 C5          -1.3890     1.1780     3.3070 ca         1 AEH      -0.180300
      3 C6          -1.0040    -1.1810     3.4510 ca         1 AEH      -0.163000
      4 C8           1.5300     0.0000     0.0000 c3         1 AEH       0.008900
      5 C10         -1.8530     2.4640     3.9410 c3         1 AEH       0.048900
      6 N12         -1.1240     4.4000     5.2510 nz         1 AEH       0.085400
      7 C3          -0.5370    -1.1830     2.1450 ca         1 AEH       0.180100
      8 C9          -1.4300     0.0000     4.0290 ca         1 AEH      -0.056000
      9 C11         -0.6720     3.1470     4.6340 c3         1 AEH      -0.059200
     10 C2          -0.9290     1.1780     2.0030 ca         1 AEH      -0.055000
     11 C1          -0.5030    -0.0000     1.4210 ca         1 AEH      -0.101300
     12 H4          -0.3610     0.8850    -0.5110 hc         1 AEH       0.025200
     13 H4A         -0.3610    -0.8840    -0.5110 hc         1 AEH       0.025200
     14 H6          -1.0360    -2.1040     4.0170 ha         1 AEH       0.125000
     15 H8           1.8910     0.5080     0.8860 hc         1 AEH       0.007700
     16 H8A          1.8910    -1.0210    -0.0030 hc         1 AEH       0.007700
     17 H8B          1.8910     0.5140    -0.8830 hc         1 AEH       0.007700
     18 H10         -2.2510     3.1200     3.1760 hc         1 AEH       0.030700
     19 H10A        -2.6250     2.2500     4.6700 hc         1 AEH       0.030700
     20 HN12        -1.4750     5.0140     4.5420 hn         1 AEH       0.221800
     21 HN1A        -1.8500     4.2040     5.9110 hn         1 AEH       0.221800
     22 HO7         -0.7450    -3.0260     1.7530 ho         1 AEH       0.415000
     23 H9          -1.7940     0.0030     5.0490 ha         1 AEH       0.102000
     24 H11         -0.2740     2.4910     5.3980 hx         1 AEH       0.088200
     25 H11A         0.0990     3.3610     3.9040 hx         1 AEH       0.088200
     26 H2          -0.9280     2.0970     1.4300 ha         1 AEH       0.107000
     27 H123        -0.3620     4.8240     5.7420 hn         1 AEH       0.221800
     28 O7          -0.1180    -2.3440     1.5740 oh         1 AEH      -0.472100
@<TRIPOS>BOND
     1     1     4 1   
     2     1    11 1   
     3     1    12 1   
     4     1    13 1   
     5     2     5 1   
     6     2     8 ar  
     7     2    10 ar  
     8     3     7 ar  
     9     3     8 ar  
    10     3    14 1   
    11     4    15 1   
    12     4    16 1   
    13     4    17 1   
    14     5     9 1   
    15     5    18 1   
    16     5    19 1   
    17     6     9 1   
    18     6    20 1   
    19     6    21 1   
    20     6    27 1   
    21     7    11 ar  
    22     7    28 1   
    23     8    23 1   
    24     9    24 1   
    25     9    25 1   
    26    10    11 ar  
    27    10    26 1   
    28    22    28 1   
@<TRIPOS>SUBSTRUCTURE
     1 AEH         1 TEMP              0 ****  ****    0 ROOT
