@<TRIPOS>MOLECULE
molecule
   28    28     1     0     0
SMALL
bcc


@<TRIPOS>ATOM
      1 C4           0.0000     0.0000     0.0000 c3         1 AEH      -0.034100
      2 C5          -1.3890     1.1780     3.3070 ca         1 AEH      -0.155300
      3 C6          -1.0040    -1.1810     3.4510 ca         1 AEH      -0.181000
      4 C8           1.5300     0.0000     0.0000 c3         1 AEH      -0.087100
      5 C10         -1.8530     2.4640     3.9410 c3         1 AEH      -0.044100
      6 N12         -1.1240     4.4000     5.2510 nz         1 AEH      -0.811600
      7 C3          -0.5370    -1.1830     2.1450 ca         1 AEH       0.157100
      8 C9          -1.4300     0.0000     4.0290 ca         1 AEH      -0.092000
      9 C11         -0.6720     3.1470     4.6340 c3         1 AEH       0.090800
     10 C2          -0.9290     1.1780     2.0030 ca         1 AEH      -0.091000
     11 C1          -0.5030    -0.0000     1.4210 ca         1 AEH      -0.084300
     12 H4          -0.3610     0.8850    -0.5110 hc         1 AEH       0.058200
     13 H4A         -0.3610    -0.8840    -0.5110 hc         1 AEH       0.058200
     14 H6          -1.0360    -2.1040     4.0170 ha         1 AEH       0.153000
     15 H8           1.8910     0.5080     0.8860 hc         1 AEH       0.042700
     16 H8A          1.8910    -1.0210    -0.0030 hc         1 AEH       0.042700
     17 H8B          1.8910     0.5140    -0.8830 hc         1 AEH       0.042700
     18 H10         -2.2510     3.1200     3.1760 hc         1 AEH       0.066200
     19 H10A        -2.6250     2.2500     4.6700 hc         1 AEH       0.066200
     20 HN12        -1.4750     5.0140     4.5420 hn         1 AEH       0.455800
     21 HN1A        -1.8500     4.2040     5.9110 hn         1 AEH       0.455800
     22 HO7         -0.7450    -3.0260     1.7530 ho         1 AEH       0.435000
     23 H9          -1.7940     0.0030     5.0490 ha         1 AEH       0.130000
     24 H11         -0.2740     2.4910     5.3980 hx         1 AEH       0.115200
     25 H11A         0.0990     3.3610     3.9040 hx         1 AEH       0.115200
     26 H2          -0.9280     2.0970     1.4300 ha         1 AEH       0.135000
     27 H123        -0.3620     4.8240     5.7420 hn         1 AEH       0.455800
     28 O7          -0.1180    -2.3440     1.5740 oh         1 AEH      -0.492100
@<TRIPOS>BOND
     1     1     4 1
     2     1    11 1
     3     2     5 1
     4     2     8 ar
     5     2    10 ar
     6     3     7 ar
     7     3     8 ar
     8     5     9 1
     9     6     9 1
    10    28     7 1
    11     7    11 ar
    12    10    11 ar
    13     1    12 1
    14     1    13 1
    15     3    14 1
    16     4    15 1
    17     4    16 1
    18     4    17 1
    19     5    18 1
    20     5    19 1
    21     6    20 1
    22     6    21 1
    23    28    22 1
    24     8    23 1
    25     9    24 1
    26     9    25 1
    27    10    26 1
    28    27     6 1
@<TRIPOS>SUBSTRUCTURE
     1 AEH         1 TEMP              0 ****  ****    0 ROOT
