@<TRIPOS>MOLECULE
molecule
   66    71     1     0     0
SMALL
bcc


@<TRIPOS>ATOM
      1 O42          0.0000     0.0000     0.0000 oh         1 AEJ      -0.523100
      2 C39          1.3590     0.0000     0.0000 ca         1 AEJ       0.107100
      3 C37          2.0560     0.0000     1.2000 ca         1 AEJ      -0.156000
      4 C35          3.4360     0.0010     1.1930 ca         1 AEJ      -0.103000
      5 C34          4.1320     0.0020    -0.0060 ca         1 AEJ      -0.083300
      6 C33          3.4390     0.0000    -1.1990 ca         1 AEJ      -0.054300
      7 C40          2.0550    -0.0060    -1.1980 ca         1 AEJ      -0.158000
      8 C24          5.6370     0.0060     0.0290 c3         1 AEJ       0.249100
      9 N26          6.1870    -0.4760    -1.2400 nh         1 AEJ      -0.554000
     10 C44          7.5610    -0.2270    -1.2010 ca         1 AEJ       0.058600
     11 C45          8.4630    -1.2760    -1.3280 ca         1 AEJ      -0.130500
     12 C47          9.8210    -1.0260    -1.2900 ca         1 AEJ      -0.122500
     13 C49         10.2830     0.2670    -1.1260 ca         1 AEJ      -0.129000
     14 C51          9.3870     1.3140    -0.9990 ca         1 AEJ      -0.122500
     15 C53          8.0290     1.0710    -1.0420 ca         1 AEJ      -0.130500
     16 C27          5.6320     0.3830    -2.2940 c3         1 AEJ       0.139800
     17 C30          4.1680    -0.0010    -2.5200 c3         1 AEJ      -0.033100
     18 C19          6.1080    -0.8900     1.1460 ca         1 AEJ      -0.098300
     19 C20          6.5020    -0.3390     2.3520 ca         1 AEJ      -0.093000
     20 C22          6.9350    -1.1570     3.3770 ca         1 AEJ      -0.162500
     21 C14          6.9740    -2.5340     3.1960 ca         1 AEJ       0.076600
     22 C15          6.5790    -3.0830     1.9840 ca         1 AEJ      -0.162500
     23 C17          6.1410    -2.2600     0.9640 ca         1 AEJ      -0.093000
     24 N7           7.4130    -3.3640     4.2310 nh         1 AEJ      -0.550000
     25 C8           6.4220    -3.2520     5.3090 c3         1 AEJ       0.144800
     26 C11          6.7770    -4.2260     6.4320 c3         1 AEJ       0.134800
     27 N1           6.7090    -5.6060     5.9340 n3         1 AEJ      -0.673600
     28 C2           7.6880    -5.7210     4.8490 c3         1 AEJ       0.145500
     29 C4           7.3380    -4.7400     3.7280 c3         1 AEJ       0.136800
     30 C55          7.6780    -7.1460     4.2910 c3         1 AEJ      -0.074400
     31 C58          8.0720    -8.1260     5.4000 c3         1 AEJ      -0.082400
     32 C61          7.1270    -7.9320     6.5900 c3         1 AEJ      -0.078400
     33 C64          7.1680    -6.4680     7.0300 c3         1 AEJ       0.139800
     34 H42         -0.3140    -0.8880    -0.0310 ho         1 AEJ       0.419000
     35 H37          1.5180     0.0720     2.1380 ha         1 AEJ       0.141000
     36 H35          3.9780     0.0010     2.1310 ha         1 AEJ       0.142000
     37 H40          1.5140    -0.0140    -2.1370 ha         1 AEJ       0.140000
     38 H24          5.9840     1.0170     0.2060 h1         1 AEJ       0.050700
     39 H45          8.1010    -2.2900    -1.4560 ha         1 AEJ       0.136500
     40 H47         10.5240    -1.8430    -1.3890 ha         1 AEJ       0.130500
     41 H49         11.3480     0.4600    -1.0950 ha         1 AEJ       0.129000
     42 H51          9.7520     2.3260    -0.8740 ha         1 AEJ       0.130500
     43 H53          7.3280     1.8910    -0.9420 ha         1 AEJ       0.136500
     44 H271         6.1840     0.2170    -3.2110 h1         1 AEJ       0.048200
     45 H272         5.6780     1.4150    -1.9670 h1         1 AEJ       0.048200
     46 H301         4.1190    -0.9910    -2.9580 hc         1 AEJ       0.059700
     47 H302         3.7060     0.7180    -3.1870 hc         1 AEJ       0.059700
     48 H20          6.4710     0.7350     2.4930 ha         1 AEJ       0.139500
     49 H22          7.2440    -0.7260     4.3220 ha         1 AEJ       0.139500
     50 H15          6.6060    -4.1560     1.8400 ha         1 AEJ       0.139500
     51 H17          5.8320    -2.6880     0.0180 ha         1 AEJ       0.139500
     52 H81          6.4240    -2.2400     5.6970 h1         1 AEJ       0.051700
     53 H82          5.4390    -3.4930     4.9210 h1         1 AEJ       0.051700
     54 H111         7.7810    -4.0200     6.7810 h1         1 AEJ       0.045200
     55 H112         6.0740    -4.1040     7.2480 h1         1 AEJ       0.045200
     56 H2           8.6760    -5.4910     5.2310 h1         1 AEJ       0.043700
     57 H41          6.3320    -4.9400     3.3780 h1         1 AEJ       0.054700
     58 H42A         8.0390    -4.8630     2.9110 h1         1 AEJ       0.054700
     59 H551         8.3880    -7.2200     3.4760 hc         1 AEJ       0.049200
     60 H552         6.6840    -7.3870     3.9350 hc         1 AEJ       0.049200
     61 H581         9.0910    -7.9290     5.7110 hc         1 AEJ       0.042200
     62 H582         7.9880    -9.1410     5.0330 hc         1 AEJ       0.042200
     63 H611         6.1180    -8.1930     6.2950 hc         1 AEJ       0.049200
     64 H612         7.4460    -8.5650     7.4100 hc         1 AEJ       0.049200
     65 H641         6.5200    -6.3330     7.8880 h1         1 AEJ       0.036700
     66 H642         8.1840    -6.2010     7.2950 h1         1 AEJ       0.036700
@<TRIPOS>BOND
     1     1     2 1
     2     1    34 1
     3     2     3 ar
     4     2     7 ar
     5     3     4 ar
     6     3    35 1
     7     4     5 ar
     8     4    36 1
     9     5     6 ar
    10     5     8 1
    11     6     7 ar
    12     6    17 1
    13     7    37 1
    14     8     9 1
    15     8    18 1
    16     8    38 1
    17     9    10 1
    18     9    16 1
    19    10    11 ar
    20    10    15 ar
    21    11    12 ar
    22    11    39 1
    23    12    13 ar
    24    12    40 1
    25    13    14 ar
    26    13    41 1
    27    14    15 ar
    28    14    42 1
    29    15    43 1
    30    16    17 1
    31    16    44 1
    32    16    45 1
    33    17    46 1
    34    17    47 1
    35    18    19 ar
    36    18    23 ar
    37    19    20 ar
    38    19    48 1
    39    20    21 ar
    40    20    49 1
    41    21    22 ar
    42    21    24 1
    43    22    23 ar
    44    22    50 1
    45    23    51 1
    46    24    25 1
    47    24    29 1
    48    25    26 1
    49    25    52 1
    50    25    53 1
    51    26    27 1
    52    26    54 1
    53    26    55 1
    54    27    28 1
    55    27    33 1
    56    28    29 1
    57    28    30 1
    58    28    56 1
    59    29    57 1
    60    29    58 1
    61    30    31 1
    62    30    59 1
    63    30    60 1
    64    31    32 1
    65    31    61 1
    66    31    62 1
    67    32    33 1
    68    32    63 1
    69    32    64 1
    70    33    65 1
    71    33    66 1
@<TRIPOS>SUBSTRUCTURE
     1 AEJ         1 TEMP              0 ****  ****    0 ROOT
