@<TRIPOS>MOLECULE
molecule
   49    52     1     0     0
SMALL
bcc


@<TRIPOS>ATOM
      1 N1           0.0000     0.0000     0.0000 nu         1 AEK      -0.878200
      2 N3           1.8180    -1.4450     6.5540 n7         1 AEK      -0.827200
      3 C4          -1.1610     0.0000     4.7460 ca         1 AEK      -0.067300
      4 C5           0.1280    -0.0010     5.5260 c3         1 AEK      -0.026100
      5 C6           0.5610    -1.4440     5.7940 c3         1 AEK       0.159800
      6 C7           2.2650    -2.8170     6.8310 c3         1 AEK       0.162800
      7 C8           3.5740    -2.7770     7.6220 c3         1 AEK      -0.073700
      8 C10          5.3610    -4.4640     7.3740 c3         1 AEK      -0.086400
      9 C13         -2.3820     0.0050     5.4150 ca         1 AEK       0.176400
     10 C15         -4.8560     0.0120     5.4200 c          1 AEK       0.710100
     11 C17         -3.5620     0.0010     3.2840 ca         1 AEK      -0.016000
     12 C1           1.4650     0.0000     0.0000 c3         1 AEK       0.223100
     13 C2          -0.6900     0.0020     1.1930 cc         1 AEK       0.679700
     14 N2          -0.1120    -0.0030     2.4320 na         1 AEK      -0.294300
     15 C3          -1.1360     0.0020     3.3640 ca         1 AEK      -0.062200
     16 C9           3.9890    -4.2030     8.0270 c3         1 AEK      -0.074400
     17 C11          5.9520    -3.0490     7.1520 c3         1 AEK      -0.086400
     18 C12          4.7100    -2.2220     6.7380 c3         1 AEK      -0.074400
     19 N4          -2.4450     0.0100     6.7720 nc         1 AEK      -0.644100
     20 C14         -3.5800     0.0150     7.4000 cd         1 AEK       0.491800
     21 N5          -4.7850     0.0160     6.7710 ns         1 AEK      -0.483400
     22 C16         -3.5890     0.0060     4.6740 ca         1 AEK      -0.203600
     23 C18         -2.3370     0.0080     2.6230 ca         1 AEK       0.115400
     24 N6          -1.9940     0.0080     1.3070 nd         1 AEK      -0.666100
     25 HN3          1.6870    -0.9570     7.4180 hn         1 AEK       0.353800
     26 H5           0.8960     0.5060     4.9550 hc         1 AEK       0.056700
     27 H5A         -0.0190     0.5120     6.4680 hc         1 AEK       0.056700
     28 H6           0.7090    -1.9570     4.8520 h1         1 AEK       0.037200
     29 H6A         -0.2070    -1.9510     6.3650 h1         1 AEK       0.037200
     30 H7           2.4240    -3.3400     5.8950 h1         1 AEK       0.032700
     31 H7A          1.5090    -3.3340     7.4090 h1         1 AEK       0.032700
     32 H8           3.4600    -2.1610     8.5060 hc         1 AEK       0.049700
     33 H10          5.9940    -5.0370     8.0420 hc         1 AEK       0.042950
     34 H10A         5.2370    -4.9750     6.4270 hc         1 AEK       0.042950
     35 H17         -4.4780    -0.1420     2.7250 ha         1 AEK       0.167000
     36 H1           1.8260    -0.8930     0.4950 h1         1 AEK       0.039700
     37 H1A          1.8260     0.0180    -1.0210 h1         1 AEK       0.039700
     38 H9           3.2630    -4.9180     7.6600 hc         1 AEK       0.045200
     39 H9A          4.0730    -4.2720     9.1050 hc         1 AEK       0.045200
     40 H11          6.6850    -3.0620     6.3540 hc         1 AEK       0.042950
     41 H11A         6.3790    -2.6640     8.0700 hc         1 AEK       0.042950
     42 H12          4.8700    -1.1710     6.9450 hc         1 AEK       0.045200
     43 H12A         4.4830    -2.3790     5.6900 hc         1 AEK       0.045200
     44 H14         -3.5660     0.0180     8.4840 h5         1 AEK       0.050800
     45 HN5         -5.6270     0.0210     7.3120 hn         1 AEK       0.335500
     46 HN2          0.8610     0.1190     2.6280 hn         1 AEK       0.306700
     47 H23         -0.5000    -0.0020    -0.8670 hn         1 AEK       0.473800
     48 H24          1.8260     0.8750     0.5260 h1         1 AEK       0.039700
     49 O1          -5.9280     0.0130     4.8430 o          1 AEK      -0.621500
@<TRIPOS>BOND
     1     1    13 1
     2     2     6 1
     3     2     5 1
     4     2    25 1
     5     3     9 ar
     6     4     3 1
     7     4    26 1
     8     4    27 1
     9     5     4 1
    10     5    28 1
    11     5    29 1
    12     6    30 1
    13     6    31 1
    14     7     6 1
    15     7    16 1
    16     7    32 1
    17     8    16 1
    18     8    33 1
    19     8    34 1
    20     9    22 ar
    21     9    19 1
    22    10    49 2
    23    10    21 1
    24    11    22 ar
    25    11    35 1
    26    12     1 1
    27    12    36 1
    28    12    37 1
    29    13    14 1
    30    13    24 2
    31    14    15 1
    32    14    46 1
    33    15     3 ar
    34    15    23 ar
    35    16    38 1
    36    16    39 1
    37    17     8 1
    38    17    18 1
    39    17    40 1
    40    17    41 1
    41    18     7 1
    42    18    42 1
    43    18    43 1
    44    19    20 2
    45    20    21 1
    46    20    44 1
    47    21    45 1
    48    22    10 1
    49    23    11 ar
    50    24    23 1
    51     1    47 1
    52    12    48 1
@<TRIPOS>SUBSTRUCTURE
     1 AEK         1 TEMP              0 ****  ****    0 ROOT
