@<TRIPOS>MOLECULE
AEK
   49    52     1     0     0
SMALL
bcc


@<TRIPOS>ATOM
      1 N1           0.0000     0.0000     0.0000 nu         1 AEK      -0.465200
      2 N3           1.8180    -1.4450     6.5540 n7         1 AEK      -0.595200
      3 C4          -1.1610     0.0000     4.7460 ca         1 AEK      -0.057300
      4 C5           0.1280    -0.0010     5.5260 c3         1 AEK       0.033900
      5 C6           0.5610    -1.4440     5.7940 c3         1 AEK       0.145800
      6 C7           2.2650    -2.8170     6.8310 c3         1 AEK       0.147800
      7 C8           3.5740    -2.7770     7.6220 c3         1 AEK      -0.051700
      8 C10          5.3610    -4.4640     7.3740 c3         1 AEK      -0.025900
      9 C13         -2.3820     0.0050     5.4150 ca         1 AEK       0.128400
     10 C15         -4.8560     0.0120     5.4200 c          1 AEK       0.622100
     11 C17         -3.5620     0.0010     3.2840 ca         1 AEK       0.024000
     12 C1           1.4650     0.0000     0.0000 c3         1 AEK       0.195100
     13 C2          -0.6900     0.0020     1.1930 cc         1 AEK       0.345700
     14 N2          -0.1120    -0.0030     2.4320 na         1 AEK       0.212700
     15 C3          -1.1360     0.0020     3.3640 ca         1 AEK      -0.237200
     16 C9           3.9890    -4.2030     8.0270 c3         1 AEK      -0.020400
     17 C11          5.9520    -3.0490     7.1520 c3         1 AEK      -0.025900
     18 C12          4.7100    -2.2220     6.7380 c3         1 AEK      -0.020400
     19 N4          -2.4450     0.0100     6.7720 nc         1 AEK      -0.535100
     20 C14         -3.5800     0.0150     7.4000 cd         1 AEK       0.316800
     21 N5          -4.7850     0.0160     6.7710 ns         1 AEK      -0.027400
     22 C16         -3.5890     0.0060     4.6740 ca         1 AEK      -0.211600
     23 C18         -2.3370     0.0080     2.6230 ca         1 AEK       0.089400
     24 N6          -1.9940     0.0080     1.3070 nd         1 AEK      -0.597100
     25 HN3          1.6870    -0.9570     7.4180 hn         1 AEK       0.257800
     26 H5           0.8960     0.5060     4.9550 hc         1 AEK       0.025700
     27 H5A         -0.0190     0.5120     6.4680 hc         1 AEK       0.025700
     28 H6           0.7090    -1.9570     4.8520 h1         1 AEK       0.010200
     29 H6A         -0.2070    -1.9510     6.3650 h1         1 AEK       0.010200
     30 H7           2.4240    -3.3400     5.8950 h1         1 AEK       0.008700
     31 H7A          1.5090    -3.3340     7.4090 h1         1 AEK       0.008700
     32 H8           3.4600    -2.1610     8.5060 hc         1 AEK       0.026700
     33 H10          5.9940    -5.0370     8.0420 hc         1 AEK       0.013450
     34 H10A         5.2370    -4.9750     6.4270 hc         1 AEK       0.013450
     35 H17         -4.4780    -0.1420     2.7250 ha         1 AEK       0.132000
     36 H1           1.8260    -0.8930     0.4950 h1         1 AEK       0.005033
     37 H1A          1.8260     0.0180    -1.0210 h1         1 AEK       0.005033
     38 H9           3.2630    -4.9180     7.6600 hc         1 AEK       0.016950
     39 H9A          4.0730    -4.2720     9.1050 hc         1 AEK       0.016950
     40 H11          6.6850    -3.0620     6.3540 hc         1 AEK       0.013450
     41 H11A         6.3790    -2.6640     8.0700 hc         1 AEK       0.013450
     42 H12          4.8700    -1.1710     6.9450 hc         1 AEK       0.016950
     43 H12A         4.4830    -2.3790     5.6900 hc         1 AEK       0.016950
     44 H14         -3.5660     0.0180     8.4840 h5         1 AEK      -0.000200
     45 HN5         -5.6270     0.0210     7.3120 hn         1 AEK       0.180500
     46 HN2          0.8610     0.1190     2.6280 hn         1 AEK       0.137700
     47 H23         -0.5000    -0.0020    -0.8670 hn         1 AEK       0.312800
     48 H24          1.8260     0.8750     0.5260 h1         1 AEK       0.005033
     49 O1          -5.9280     0.0130     4.8430 o          1 AEK      -0.662500
@<TRIPOS>BOND
     1     1    12 1   
     2     1    13 1   
     3     1    47 1   
     4     2     5 1   
     5     2     6 1   
     6     2    25 1   
     7     3     4 1   
     8     3     9 ar  
     9     3    15 ar  
    10     4     5 1   
    11     4    26 1   
    12     4    27 1   
    13     5    28 1   
    14     5    29 1   
    15     6     7 1   
    16     6    30 1   
    17     6    31 1   
    18     7    16 1   
    19     7    18 1   
    20     7    32 1   
    21     8    16 1   
    22     8    17 1   
    23     8    33 1   
    24     8    34 1   
    25     9    19 1   
    26     9    22 ar  
    27    10    21 1   
    28    10    22 1   
    29    10    49 2   
    30    11    22 ar  
    31    11    23 ar  
    32    11    35 1   
    33    12    36 1   
    34    12    37 1   
    35    12    48 1   
    36    13    14 1   
    37    13    24 2   
    38    14    15 1   
    39    14    46 1   
    40    15    23 ar  
    41    16    38 1   
    42    16    39 1   
    43    17    18 1   
    44    17    40 1   
    45    17    41 1   
    46    18    42 1   
    47    18    43 1   
    48    19    20 2   
    49    20    21 1   
    50    20    44 1   
    51    21    45 1   
    52    23    24 1   
@<TRIPOS>SUBSTRUCTURE
     1 AEK         1 TEMP              0 ****  ****    0 ROOT
