@<TRIPOS>MOLECULE
molecule
   11    10     1     0     0
SMALL
bcc


@<TRIPOS>ATOM
      1 C1           0.0000     0.0000     0.0000 c2         1 AEM       0.354200
      2 N1           1.2790     0.0000     0.0000 n2         1 AEM      -0.694100
      3 C2          -0.7550     0.0000     1.3020 c3         1 AEM       0.055500
      4 N2          -1.6000     1.1980     1.3790 nz         1 AEM      -0.808600
      5 HA          -0.5410    -0.0000    -0.9390 h4         1 AEM      -0.003200
      6 H1           1.7790    -0.0000    -0.8670 hn         1 AEM       0.453400
      7 H2C1        -0.0530    -0.0000     2.1270 hx         1 AEM       0.129200
      8 H2C2        -1.3780    -0.8850     1.3580 hx         1 AEM       0.129200
      9 H2N1        -2.0530     1.2310     2.2710 hn         1 AEM       0.461133
     10 H2N2        -2.2910     1.1670     0.6560 hn         1 AEM       0.461133
     11 H23         -1.0330     2.0150     1.2630 hn         1 AEM       0.461133
@<TRIPOS>BOND
     1     1     2 2
     2     1     3 1
     3     1     5 1
     4     2     6 1
     5     3     4 1
     6     3     7 1
     7     3     8 1
     8     4     9 1
     9     4    10 1
    10    11     4 1
@<TRIPOS>SUBSTRUCTURE
     1 AEM         1 TEMP              0 ****  ****    0 ROOT
