@<TRIPOS>MOLECULE
AEM
   11    10     1     0     0
SMALL
bcc


@<TRIPOS>ATOM
      1 C1           0.0000     0.0000     0.0000 c2         1 AEM       0.301200
      2 N1           1.2790     0.0000     0.0000 n2         1 AEM      -0.467100
      3 C2          -0.7550     0.0000     1.3020 c3         1 AEM      -0.137500
      4 N2          -1.6000     1.1980     1.3790 nz         1 AEM       0.099400
      5 HA          -0.5410    -0.0000    -0.9390 h4         1 AEM       0.025800
      6 H1           1.7790     0.0000     0.8670 hn         1 AEM       0.330400
      7 H2C1        -0.0530    -0.0000     2.1270 hx         1 AEM       0.088200
      8 H2C2        -1.3780    -0.8850     1.3580 hx         1 AEM       0.088200
      9 H2N1        -2.0440     1.2360     2.2750 hn         1 AEM       0.224133
     10 H2N2        -2.2980     1.1610     0.6630 hn         1 AEM       0.224133
     11 H23         -1.0350     2.0140     1.2520 hn         1 AEM       0.224133
@<TRIPOS>BOND
     1     1     2 2   
     2     1     3 1   
     3     1     5 1   
     4     2     6 1   
     5     3     4 1   
     6     3     7 1   
     7     3     8 1   
     8     4     9 1   
     9     4    10 1   
    10     4    11 1   
@<TRIPOS>SUBSTRUCTURE
     1 AEM         1 TEMP              0 ****  ****    0 ROOT
