@<TRIPOS>MOLECULE
molecule
   36    37     1     0     0
SMALL
bcc


@<TRIPOS>ATOM
      1 C1           0.0000     0.0000     0.0000 ca         1 AEN      -0.242500
      2 C2           1.3610     0.0000     0.0000 ca         1 AEN      -0.041000
      3 C3           2.0790     0.0000     1.1940 ca         1 AEN      -0.158000
      4 C4           1.4390    -0.0060     2.3950 ca         1 AEN      -0.111000
      5 C5          -0.6600    -0.0290     3.6610 ca         1 AEN       0.185600
      6 C6          -2.0390    -0.0340     3.6560 ca         1 AEN      -0.232000
      7 C7          -2.7460    -0.0270     2.4590 ca         1 AEN      -0.111000
      8 C8          -2.0990    -0.0170     1.2610 ca         1 AEN      -0.146000
      9 C9          -0.6940    -0.0120     1.2220 ca         1 AEN       0.069000
     10 C10          0.0360    -0.0120     2.4350 ca         1 AEN      -0.094000
     11 C1'         -0.5050    -0.0830    11.0410 c3         1 AEN      -0.172100
     12 C2'          0.2470    -0.0710     9.7350 c          1 AEN       0.656100
     13 O2'          1.4590    -0.0670     9.7330 o          1 AEN      -0.612100
     14 N3'         -0.4280    -0.0650     8.5680 ns         1 AEN      -0.585900
     15 C4'          0.3020    -0.0530     7.2980 c3         1 AEN       0.093000
     16 C5'         -0.6930    -0.0480     6.1370 c3         1 AEN       0.227800
     17 N6'          0.0370    -0.0360     4.8670 nu         1 AEN      -0.834600
     18 S           -0.8850    -0.0010    -1.5230 s6         1 AEN       1.328100
     19 O1S          0.0650    -0.3390    -2.5230 o          1 AEN      -0.707533
     20 O2S         -2.0940    -0.7020    -1.2660 o          1 AEN      -0.707533
     21 O3S         -1.2950     1.4360    -1.8120 o          1 AEN      -0.707533
     22 H2           1.8940     0.0050    -0.9430 ha         1 AEN       0.150000
     23 H3           3.1620     0.0000     1.1650 ha         1 AEN       0.108000
     24 H4           2.0100    -0.0060     3.3160 ha         1 AEN       0.100000
     25 H6          -2.5780    -0.0420     4.5960 ha         1 AEN       0.105000
     26 H7          -3.8290    -0.0310     2.4790 ha         1 AEN       0.116000
     27 H8          -2.6670    -0.0110     0.3380 ha         1 AEN       0.212000
     28 H1'1        -1.1300     0.7990    11.1060 hc         1 AEN       0.058033
     29 H1'2        -1.1250    -0.9700    11.0920 hc         1 AEN       0.058033
     30 H1'3         0.2010    -0.0880    11.8630 hc         1 AEN       0.058033
     31 HN'3        -1.4290    -0.0680     8.5690 hn         1 AEN       0.313500
     32 H4'1         0.9270    -0.9350     7.2340 h1         1 AEN       0.057200
     33 H4'2         0.9220     0.8340     7.2470 h1         1 AEN       0.057200
     34 H5'1        -1.3180     0.8350     6.2020 h1         1 AEN       0.037200
     35 H5'2        -1.3130    -0.9340     6.1880 h1         1 AEN       0.037200
     36 HN'6         1.0380    -0.0330     4.8660 hn         1 AEN       0.436800
@<TRIPOS>BOND
     1     1     2 ar
     2     1     9 ar
     3     1    18 1
     4     2     3 ar
     5     2    22 1
     6     3     4 ar
     7     3    23 1
     8     4    10 ar
     9     4    24 1
    10     5     6 ar
    11     5    10 ar
    12     5    17 1
    13     6     7 ar
    14     6    25 1
    15     7     8 ar
    16     7    26 1
    17     8     9 ar
    18     8    27 1
    19     9    10 ar
    20    11    12 1
    21    11    28 1
    22    11    29 1
    23    11    30 1
    24    12    13 2
    25    12    14 1
    26    14    15 1
    27    14    31 1
    28    15    16 1
    29    15    32 1
    30    15    33 1
    31    16    17 1
    32    16    34 1
    33    16    35 1
    34    17    36 1
    35    18    19 1
    36    18    20 1
    37    18    21 1
@<TRIPOS>SUBSTRUCTURE
     1 AEN         1 TEMP              0 ****  ****    0 ROOT
