@<TRIPOS>MOLECULE
AEP
   27    26     1     0     0
SMALL
bcc


@<TRIPOS>ATOM
      1 N           0.1740    0.4140    0.3960 n3        1 AEP     -0.874800
      2 C1          1.5890    0.1500    0.1780 c3        1 AEP     -0.121700
      3 C2          2.3350   -0.3600    1.4060 c3        1 AEP     -0.219400
      4 C3          1.8340    0.1970    2.7490 c         1 AEP      0.907600
      5 O1          1.3650    1.3740    2.8060 o         1 AEP     -0.858300
      6 O2          1.9390   -0.5480    3.7660 o         1 AEP     -0.858300
      7 P           1.7110   -0.9200   -1.1020 p5        1 AEP      1.503100
      8 C4          3.2850   -1.3190   -1.2710 c3        1 AEP     -0.449600
      9 C5          4.8540    0.5110   -1.9980 c3        1 AEP     -0.069100
     10 C6          3.9450   -0.6160   -2.4410 c3        1 AEP     -0.168700
     11 C7          4.7690   -1.5860   -3.3330 c         1 AEP      0.916600
     12 O3          4.6990   -2.8320   -3.1300 o         1 AEP     -0.854300
     13 O4          5.4750   -1.0750   -4.2520 o         1 AEP     -0.854300
     14 O1P         0.9450   -0.6070   -2.3150 o         1 AEP     -0.897300
     15 O2P         0.9690   -2.2800   -0.5910 oh        1 AEP     -0.799400
     16 HN1         0.0760    1.1870    1.0380 hn        1 AEP      0.353300
     17 HN2        -0.2160   -0.3960    0.8460 hn        1 AEP      0.353300
     18 H1          2.0530    1.1450   -0.0890 h1        1 AEP      0.092700
     19 H21         3.4180   -0.0720    1.3550 hc        1 AEP      0.041200
     20 H22         2.2620   -1.4780    1.4340 hc        1 AEP      0.041200
     21 H41         3.3920   -2.4310   -1.4780 hc        1 AEP      0.124200
     22 H42         3.9120   -1.1640   -0.3570 hc        1 AEP      0.124200
     23 H51         5.3780    0.9280   -2.8940 hc        1 AEP      0.018700
     24 H52         4.2870    1.3330   -1.4980 hc        1 AEP      0.018700
     25 H53         5.6260    0.1330   -1.2850 hc        1 AEP      0.018700
     26 H6          3.1400   -0.2010   -3.1130 hc        1 AEP      0.064700
     27 HOP2        0.2270   -2.5170   -1.1380 ho        1 AEP      0.447000
@<TRIPOS>BOND
     1    1    2 1   
     2    1   16 1   
     3    1   17 1   
     4    2    3 1   
     5    2    7 1   
     6    2   18 1   
     7    3    4 1   
     8    3   19 1   
     9    3   20 1   
    10    4    5 1   
    11    4    6 1   
    12    7    8 1   
    13    7   14 2   
    14    7   15 1   
    15    8   10 1   
    16    8   21 1   
    17    8   22 1   
    18    9   10 1   
    19    9   23 1   
    20    9   24 1   
    21    9   25 1   
    22   10   11 1   
    23   10   26 1   
    24   11   12 1   
    25   11   13 1   
    26   15   27 1   
@<TRIPOS>SUBSTRUCTURE
     1 AEP         1 TEMP              0 ****  ****    0 ROOT
