@<TRIPOS>MOLECULE
molecule
   35    36     1     0     0
SMALL
bcc


@<TRIPOS>ATOM
      1 C6           0.0000     0.0000     0.0000 ca         1 AEQ       0.097600
      2 C1          -2.7800    -0.3560    -2.5180 c3         1 AEQ      -0.158400
      3 C5           2.1760     0.0020    -1.2850 c3         1 AEQ      -0.027100
      4 C4           1.3110    -0.4980    -2.4420 c3         1 AEQ      -0.099400
      5 C3          -0.0060     0.2890    -2.4520 c3         1 AEQ       0.095000
      6 C2          -4.2730    -0.5480    -2.2450 c3         1 AEQ      -0.078100
      7 C7           1.3890     0.0000     0.0000 ca         1 AEQ      -0.141300
      8 C9           1.3730     0.0030     2.4070 ca         1 AEQ      -0.161600
      9 O           -2.6240    -0.4600    -0.1650 o          1 AEQ      -0.591100
     10 C8           2.0730     0.0000     1.1980 ca         1 AEQ      -0.047000
     11 C10          2.1070     0.0040     3.6860 c          1 AEQ       0.652700
     12 C11          2.2170     0.0030     6.0710 c3         1 AEQ       0.140700
     13 C13         -0.7020    -0.0020     1.2030 ca         1 AEQ      -0.186000
     14 C12         -0.0240     0.0010     2.4010 ca         1 AEQ      -0.062000
     15 O2           3.3220     0.0060     3.6890 o          1 AEQ      -0.559000
     16 O1           1.4300     0.0030     4.8510 os         1 AEQ      -0.428900
     17 N           -0.7150    -0.0060    -1.2010 n          1 AEQ      -0.374000
     18 C           -2.0360    -0.2780    -1.2100 c          1 AEQ       0.666100
     19 H1          -2.4070    -1.1930    -3.0960 hc         1 AEQ       0.062200
     20 H2          -2.6290     0.5620    -3.0740 hc         1 AEQ       0.062200
     21 H3           2.5080     1.0100    -1.4980 hc         1 AEQ       0.056200
     22 H4           3.0360    -0.6480    -1.1770 hc         1 AEQ       0.056200
     23 H5           1.1020    -1.5520    -2.3090 hc         1 AEQ       0.056700
     24 H6           1.8340    -0.3410    -3.3780 hc         1 AEQ       0.056700
     25 H7           0.2030     1.3510    -2.5130 h1         1 AEQ       0.056200
     26 H8          -0.6100    -0.0200    -3.2970 h1         1 AEQ       0.056200
     27 H9          -4.4260    -1.4800    -1.7130 hc         1 AEQ       0.046033
     28 H10         -4.8110    -0.5760    -3.1840 hc         1 AEQ       0.046033
     29 H11         -4.6390     0.2750    -1.6430 hc         1 AEQ       0.046033
     30 H12          3.1560    -0.0020     1.2020 ha         1 AEQ       0.155000
     31 H13          2.8410     0.8890     6.0980 h1         1 AEQ       0.048367
     32 H14          2.8430    -0.8800     6.0970 h1         1 AEQ       0.048367
     33 H15          1.5550     0.0020     6.9280 h1         1 AEQ       0.048367
     34 H16         -1.7860    -0.0040     1.1960 ha         1 AEQ       0.208000
     35 H17         -0.5720     0.0040     3.3360 ha         1 AEQ       0.152000
@<TRIPOS>BOND
     1    12    16 1
     2    15    11 2
     3    16    11 1
     4    11     8 1
     5     8    14 ar
     6     8    10 ar
     7    14    13 ar
     8     6     2 1
     9     2    18 1
    10    10     7 ar
    11    13     1 ar
    12     7     1 ar
    13     7     3 1
    14     1    17 1
    15    18    17 1
    16    18     9 2
    17     3     4 1
    18    17     5 1
    19     5     4 1
    20     2    19 1
    21     2    20 1
    22     3    21 1
    23     3    22 1
    24     4    23 1
    25     4    24 1
    26     5    25 1
    27     5    26 1
    28     6    27 1
    29     6    28 1
    30     6    29 1
    31    10    30 1
    32    12    31 1
    33    12    32 1
    34    12    33 1
    35    13    34 1
    36    14    35 1
@<TRIPOS>SUBSTRUCTURE
     1 AEQ         1 TEMP              0 ****  ****    0 ROOT
