@<TRIPOS>MOLECULE
AEQ
   35    36     1     0     0
SMALL
bcc


@<TRIPOS>ATOM
      1 C6           0.0000     0.0000     0.0000 ca         1 AEQ      -0.034400
      2 C1          -2.7800    -0.3560    -2.5180 c3         1 AEQ      -0.104400
      3 C5           2.1760     0.0020    -1.2850 c3         1 AEQ       0.043900
      4 C4           1.3110    -0.4980    -2.4420 c3         1 AEQ      -0.040400
      5 C3          -0.0060     0.2890    -2.4520 c3         1 AEQ       0.022000
      6 C2          -4.2730    -0.5480    -2.2450 c3         1 AEQ       0.020900
      7 C7           1.3890     0.0000     0.0000 ca         1 AEQ      -0.147300
      8 C9           1.3730     0.0030     2.4070 ca         1 AEQ      -0.176600
      9 O           -2.6240    -0.4600    -0.1650 o          1 AEQ      -0.627100
     10 C8           2.0730     0.0000     1.1980 ca         1 AEQ      -0.017000
     11 C10          2.1070     0.0040     3.6860 c          1 AEQ       0.724700
     12 C11          2.2170     0.0030     6.0710 c3         1 AEQ       0.270700
     13 C13         -0.7020    -0.0020     1.2030 ca         1 AEQ      -0.188000
     14 C12         -0.0240     0.0010     2.4010 ca         1 AEQ      -0.028000
     15 O2           3.3220     0.0060     3.6890 o          1 AEQ      -0.598000
     16 O1           1.4300     0.0030     4.8510 os         1 AEQ      -0.415900
     17 N           -0.7150    -0.0060    -1.2010 n          1 AEQ       0.020000
     18 C           -2.0360    -0.2780    -1.2100 c          1 AEQ       0.578100
     19 H1          -2.4070    -1.1930    -3.0960 hc         1 AEQ       0.029700
     20 H2          -2.6290     0.5620    -3.0740 hc         1 AEQ       0.029700
     21 H3           2.5080     1.0100    -1.4980 hc         1 AEQ       0.025200
     22 H4           3.0360    -0.6480    -1.1770 hc         1 AEQ       0.025200
     23 H5           1.1020    -1.5520    -2.3090 hc         1 AEQ       0.025700
     24 H6           1.8340    -0.3410    -3.3780 hc         1 AEQ       0.025700
     25 H7           0.2030     1.3510    -2.5130 h1         1 AEQ       0.031200
     26 H8          -0.6100    -0.0200    -3.2970 h1         1 AEQ       0.031200
     27 H9          -4.4260    -1.4800    -1.7130 hc         1 AEQ       0.010700
     28 H10         -4.8110    -0.5760    -3.1840 hc         1 AEQ       0.010700
     29 H11         -4.6390     0.2750    -1.6430 hc         1 AEQ       0.010700
     30 H12          3.1560    -0.0020     1.2020 ha         1 AEQ       0.126000
     31 H13          2.8410     0.8890     6.0980 h1         1 AEQ      -0.000300
     32 H14          2.8430    -0.8800     6.0970 h1         1 AEQ      -0.000300
     33 H15          1.5550     0.0020     6.9280 h1         1 AEQ      -0.000300
     34 H16         -1.7860    -0.0040     1.1960 ha         1 AEQ       0.198000
     35 H17         -0.5720     0.0040     3.3360 ha         1 AEQ       0.117000
@<TRIPOS>BOND
     1     1     7 ar  
     2     1    13 ar  
     3     1    17 1   
     4     2     6 1   
     5     2    18 1   
     6     2    19 1   
     7     2    20 1   
     8     3     4 1   
     9     3     7 1   
    10     3    21 1   
    11     3    22 1   
    12     4     5 1   
    13     4    23 1   
    14     4    24 1   
    15     5    17 1   
    16     5    25 1   
    17     5    26 1   
    18     6    27 1   
    19     6    28 1   
    20     6    29 1   
    21     7    10 ar  
    22     8    10 ar  
    23     8    11 1   
    24     8    14 ar  
    25     9    18 2   
    26    10    30 1   
    27    11    15 2   
    28    11    16 1   
    29    12    16 1   
    30    12    31 1   
    31    12    32 1   
    32    12    33 1   
    33    13    14 ar  
    34    13    34 1   
    35    14    35 1   
    36    17    18 1   
@<TRIPOS>SUBSTRUCTURE
     1 AEQ         1 TEMP              0 ****  ****    0 ROOT
