@<TRIPOS>MOLECULE
molecule
   57    61     1     0     0
SMALL
bcc


@<TRIPOS>ATOM
      1 C1           0.0000     0.0000     0.0000 c3         1 AER      -0.066400
      2 C2           1.5300     0.0000     0.0000 c3         1 AER      -0.091400
      3 C3           2.0450     0.0000     1.4410 c3         1 AER       0.150100
      4 O3           3.4700     0.0890     1.4380 oh         1 AER      -0.607800
      5 C4           1.6160    -1.2960     2.1350 c3         1 AER      -0.052200
      6 C5           0.1060    -1.4260     2.0210 c2         1 AER      -0.111400
      7 C6          -0.5760    -1.6550     3.1040 c2         1 AER      -0.171200
      8 C7          -2.0700    -1.7930     3.1160 c3         1 AER      -0.039200
      9 C8          -2.5440    -2.2780     1.7410 c3         1 AER      -0.060700
     10 C9          -2.0280    -1.2920     0.6840 c3         1 AER      -0.052700
     11 C10         -0.5080    -1.2860     0.6600 c3         1 AER      -0.013800
     12 C11         -2.5640    -1.6050    -0.7090 c3         1 AER      -0.082400
     13 C12         -4.0980    -1.7280    -0.7240 c3         1 AER      -0.060400
     14 C13         -4.4600    -2.7920     0.2840 c3         1 AER      -0.031800
     15 C14         -4.0600    -2.2460     1.6860 c3         1 AER      -0.067700
     16 C15         -4.7990    -3.2840     2.5430 c3         1 AER      -0.051200
     17 C16         -6.0970    -3.4690     1.7560 c2         1 AER      -0.165200
     18 C17         -5.8930    -3.1660     0.4650 ce         1 AER      -0.067400
     19 C18         -3.6410    -4.0540     0.0040 c3         1 AER      -0.098100
     20 C19         -0.0540    -2.4710    -0.1950 c3         1 AER      -0.087100
     21 C20         -6.9170    -3.1980    -0.6000 ca         1 AER      -0.159100
     22 C21         -6.8180    -4.1080    -1.6530 ca         1 AER       0.431200
     23 N22         -7.7290    -4.1370    -2.6020 nb         1 AER      -0.689000
     24 C23         -8.7630    -3.3160    -2.6000 ca         1 AER       0.416200
     25 C24         -8.9320    -2.3850    -1.5920 ca         1 AER      -0.254300
     26 C25         -8.0050    -2.3180    -0.5670 ca         1 AER      -0.085000
     27 H1          -0.3600     0.0480    -1.0210 hc         1 AER       0.045700
     28 H1A         -0.3600     0.8570     0.5560 hc         1 AER       0.045700
     29 H2           1.8890    -0.8860    -0.5100 hc         1 AER       0.052700
     30 H2A          1.8890     0.8860    -0.5100 hc         1 AER       0.052700
     31 H3           1.6270     0.8470     1.9710 h1         1 AER       0.032700
     32 HO3          3.7400     0.8380     1.9430 ho         1 AER       0.400000
     33 H4           2.0910    -2.1420     1.6520 hc         1 AER       0.057200
     34 H4A          1.9000    -1.2600     3.1800 hc         1 AER       0.057200
     35 H6          -0.0410    -1.7500     4.0410 ha         1 AER       0.121000
     36 H7          -2.5200    -0.8320     3.3340 hc         1 AER       0.049700
     37 H7A         -2.3600    -2.5140     3.8710 hc         1 AER       0.049700
     38 H8          -2.1760    -3.2770     1.5420 hc         1 AER       0.074700
     39 H9          -2.3640    -0.2990     0.9580 hc         1 AER       0.049700
     40 H11         -2.1340    -2.5400    -1.0480 hc         1 AER       0.047700
     41 H11A        -2.2690    -0.8110    -1.3850 hc         1 AER       0.047700
     42 H12         -4.4350    -2.0230    -1.7100 hc         1 AER       0.047200
     43 H12A        -4.5460    -0.7830    -0.4410 hc         1 AER       0.047200
     44 H14         -4.4480    -1.2470     1.8450 hc         1 AER       0.065700
     45 H15         -5.0010    -2.8940     3.5330 hc         1 AER       0.053700
     46 H15A        -4.2420    -4.2120     2.5900 hc         1 AER       0.053700
     47 H16         -7.0500    -3.2440     2.2210 ha         1 AER       0.141000
     48 H18         -3.6860    -4.2850    -1.0540 hc         1 AER       0.043367
     49 H18A        -4.0480    -4.8820     0.5720 hc         1 AER       0.043367
     50 H18B        -2.6110    -3.8880     0.2940 hc         1 AER       0.043367
     51 H19         -0.6130    -3.3550     0.0870 hc         1 AER       0.038367
     52 H19A         1.0030    -2.6460    -0.0360 hc         1 AER       0.038367
     53 H19B        -0.2300    -2.2500    -1.2410 hc         1 AER       0.038367
     54 H21         -5.9830    -4.7980    -1.6890 h4         1 AER       0.029100
     55 H23         -9.4890    -3.3720    -3.4020 h4         1 AER       0.022100
     56 H24         -9.7860    -1.7180    -1.6010 ha         1 AER       0.138000
     57 H25         -8.1130    -1.5980     0.2350 ha         1 AER       0.140000
@<TRIPOS>BOND
     1     1    27 1
     2     1    28 1
     3     2     1 1
     4     2    29 1
     5     2    30 1
     6     3     2 1
     7     3    31 1
     8     4     3 1
     9     4    32 1
    10     5     3 1
    11     5     6 1
    12     5    33 1
    13     5    34 1
    14     6    11 1
    15     7     6 2
    16     7     8 1
    17     7    35 1
    18     8     9 1
    19     8    36 1
    20     8    37 1
    21     9    15 1
    22     9    10 1
    23     9    38 1
    24    10    12 1
    25    10    39 1
    26    11     1 1
    27    11    10 1
    28    12    13 1
    29    12    40 1
    30    12    41 1
    31    13    42 1
    32    13    43 1
    33    14    13 1
    34    14    18 1
    35    15    14 1
    36    15    44 1
    37    16    15 1
    38    16    17 1
    39    16    45 1
    40    16    46 1
    41    17    18 2
    42    17    47 1
    43    18    21 1
    44    19    14 1
    45    19    48 1
    46    19    49 1
    47    19    50 1
    48    20    11 1
    49    20    51 1
    50    20    52 1
    51    20    53 1
    52    21    26 ar
    53    21    22 ar
    54    22    23 ar
    55    22    54 1
    56    23    24 ar
    57    24    55 1
    58    25    24 ar
    59    25    56 1
    60    26    25 ar
    61    26    57 1
@<TRIPOS>SUBSTRUCTURE
     1 AER         1 TEMP              0 ****  ****    0 ROOT
