@<TRIPOS>MOLECULE
AER
   57    61     1     0     0
SMALL
bcc


@<TRIPOS>ATOM
      1 C1          0.1150   -0.2020   -0.1570 c3        1 AER     -0.070400
      2 C2          1.6030    0.0430   -0.0500 c3        1 AER     -0.075400
      3 C3          2.0000    0.2330    1.4080 c3        1 AER      0.145100
      4 O3          3.4120    0.4080    1.4280 oh        1 AER     -0.600800
      5 C4          1.5930   -0.9830    2.2360 c3        1 AER     -0.076200
      6 C5          0.1520   -1.3240    2.0620 c2        1 AER     -0.104400
      7 C6         -0.6130   -1.5630    3.1380 c2        1 AER     -0.169200
      8 C7         -2.0420   -1.9350    3.0850 c3        1 AER     -0.042200
      9 C8         -2.4680   -2.3850    1.6960 c3        1 AER     -0.046700
     10 C9         -1.9060   -1.4190    0.6390 c3        1 AER     -0.048700
     11 C10        -0.3600   -1.4230    0.6460 c3        1 AER     -0.000800
     12 C11        -2.4700   -1.6610   -0.7580 c3        1 AER     -0.075400
     13 C12        -3.9790   -1.8480   -0.8300 c3        1 AER     -0.062400
     14 C13        -4.4320   -2.8920    0.1740 c3        1 AER     -0.011800
     15 C14        -3.9730   -2.3730    1.5710 c3        1 AER     -0.067700
     16 C15        -4.8660   -3.1400    2.5520 c3        1 AER     -0.047200
     17 C16        -6.1310   -3.2980    1.7520 c2        1 AER     -0.161200
     18 C17        -5.9240   -3.0880    0.4260 ce        1 AER     -0.066400
     19 C18        -3.8510   -4.2610   -0.1620 c3        1 AER     -0.085100
     20 C19         0.1980   -2.6940    0.0100 c3        1 AER     -0.084100
     21 C20        -6.9490   -3.0750   -0.5930 ca        1 AER     -0.143100
     22 C21        -6.6870   -3.4130   -1.9420 ca        1 AER      0.402200
     23 N22        -7.6190   -3.4130   -2.9110 nb        1 AER     -0.666000
     24 C23        -8.8750   -3.0670   -2.5690 ca        1 AER      0.391200
     25 C24        -9.2460   -2.7110   -1.2600 ca        1 AER     -0.246300
     26 C25        -8.2690   -2.7160   -0.2660 ca        1 AER     -0.090000
     27 H1         -0.1480   -0.3500   -1.2370 hc        1 AER      0.045200
     28 H1A        -0.4340    0.7080    0.2040 hc        1 AER      0.045200
     29 H2          2.1760   -0.8190   -0.4810 hc        1 AER      0.055700
     30 H2A         1.8840    0.9590   -0.6320 hc        1 AER      0.055700
     31 H3          1.5080    1.1570    1.8240 h1        1 AER      0.035700
     32 HO3         3.6680    0.4830    2.3540 ho        1 AER      0.398000
     33 H4          2.2230   -1.8610    1.9230 hc        1 AER      0.051700
     34 H4A         1.8230   -0.7830    3.3160 hc        1 AER      0.051700
     35 H6         -0.1930   -1.4790    4.1550 ha        1 AER      0.120000
     36 H7         -2.6570   -1.0480    3.4040 hc        1 AER      0.048700
     37 H7A        -2.2510   -2.7600    3.8180 hc        1 AER      0.048700
     38 H8         -2.0710   -3.4210    1.5190 hc        1 AER      0.060700
     39 H9         -2.2320   -0.3840    0.9520 hc        1 AER      0.048700
     40 H11        -2.2030   -0.7800   -1.4020 hc        1 AER      0.043200
     41 H11A       -1.9800   -2.5610   -1.2150 hc        1 AER      0.043200
     42 H12        -4.4960   -0.8760   -0.6190 hc        1 AER      0.045700
     43 H12A       -4.2570   -2.1580   -1.8710 hc        1 AER      0.045700
     44 H14        -4.2970   -1.2910    1.6430 hc        1 AER      0.051700
     45 H15        -5.0370   -2.5660    3.4940 hc        1 AER      0.054200
     46 H15A       -4.4320   -4.1360    2.8210 hc        1 AER      0.054200
     47 H16        -7.0770   -3.5370    2.2390 ha        1 AER      0.138000
     48 H18        -2.7440   -4.2150   -0.2940 hc        1 AER      0.038700
     49 H18A       -4.2990   -4.6490   -1.1070 hc        1 AER      0.038700
     50 H18B       -4.0770   -4.9840    0.6600 hc        1 AER      0.038700
     51 H19        -0.3410   -3.5950    0.3880 hc        1 AER      0.038033
     52 H19A        1.2830   -2.8060    0.2470 hc        1 AER      0.038033
     53 H19B        0.0930   -2.6540   -1.1010 hc        1 AER      0.038033
     54 H21        -5.6700   -3.7060   -2.2630 h4        1 AER      0.026100
     55 H23        -9.6160   -3.0760   -3.3880 h4        1 AER      0.022100
     56 H24       -10.2830   -2.4350   -1.0320 ha        1 AER      0.143000
     57 H25        -8.5240   -2.4380    0.7670 ha        1 AER      0.139000
@<TRIPOS>BOND
     1    1    2 1   
     2    1   11 1   
     3    1   27 1   
     4    1   28 1   
     5    2    3 1   
     6    2   29 1   
     7    2   30 1   
     8    3    4 1   
     9    3    5 1   
    10    3   31 1   
    11    4   32 1   
    12    5    6 1   
    13    5   33 1   
    14    5   34 1   
    15    6    7 2   
    16    6   11 1   
    17    7    8 1   
    18    7   35 1   
    19    8    9 1   
    20    8   36 1   
    21    8   37 1   
    22    9   10 1   
    23    9   15 1   
    24    9   38 1   
    25   10   11 1   
    26   10   12 1   
    27   10   39 1   
    28   11   20 1   
    29   12   13 1   
    30   12   40 1   
    31   12   41 1   
    32   13   14 1   
    33   13   42 1   
    34   13   43 1   
    35   14   15 1   
    36   14   18 1   
    37   14   19 1   
    38   15   16 1   
    39   15   44 1   
    40   16   17 1   
    41   16   45 1   
    42   16   46 1   
    43   17   18 2   
    44   17   47 1   
    45   18   21 1   
    46   19   48 1   
    47   19   49 1   
    48   19   50 1   
    49   20   51 1   
    50   20   52 1   
    51   20   53 1   
    52   21   22 ar  
    53   21   26 ar  
    54   22   23 ar  
    55   22   54 1   
    56   23   24 ar  
    57   24   25 ar  
    58   24   55 1   
    59   25   26 ar  
    60   25   56 1   
    61   26   57 1   
@<TRIPOS>SUBSTRUCTURE
     1 AER         1 TEMP              0 ****  ****    0 ROOT
