@<TRIPOS>MOLECULE
molecule
   24    24     1     0     0
SMALL
bcc


@<TRIPOS>ATOM
      1 C3           0.0000     0.0000     0.0000 ca         1 AES      -0.138000
      2 C2           1.3820     0.0000     0.0000 ca         1 AES      -0.005000
      3 C1           2.0730     0.0000     1.1970 ca         1 AES      -0.313500
      4 S            3.8350    -0.0010     1.1980 sy         1 AES       1.515000
      5 F            4.3120     1.5360     1.1980 f          1 AES      -0.252900
      6 O1S          4.2360    -0.5460     2.4470 o          1 AES      -0.599800
      7 O2S          4.2360    -0.5450    -0.0520 o          1 AES      -0.599800
      8 C6           1.3820    -0.0000     2.3950 ca         1 AES      -0.005000
      9 C5          -0.0010     0.0010     2.3940 ca         1 AES      -0.138000
     10 C4          -0.6920    -0.0000     1.1970 ca         1 AES      -0.068300
     11 C7          -2.1980     0.0000     1.1970 c3         1 AES      -0.060100
     12 C8          -2.7090    -1.4420     1.1960 c3         1 AES       0.093800
     13 N8          -4.1780    -1.4420     1.1960 nz         1 AES      -0.811600
     14 H3          -0.5410    -0.0000    -0.9380 ha         1 AES       0.140000
     15 H2           1.9230     0.0000    -0.9380 ha         1 AES       0.172500
     16 H6           1.9230     0.0000     3.3330 ha         1 AES       0.172500
     17 H5          -0.5430     0.0010     3.3320 ha         1 AES       0.140000
     18 H71         -2.5600     0.5110     2.0810 hc         1 AES       0.073700
     19 H72         -2.5590     0.5120     0.3120 hc         1 AES       0.073700
     20 H81         -2.3480    -1.9530     2.0800 hx         1 AES       0.117700
     21 H82         -2.3480    -1.9530     0.3110 hx         1 AES       0.117700
     22 HN81        -4.5120    -2.3850     1.1950 hn         1 AES       0.458467
     23 HN82        -4.5120    -0.9700     2.0130 hn         1 AES       0.458467
     24 H83         -4.5110    -0.9690     0.3790 hn         1 AES       0.458467
@<TRIPOS>BOND
     1     1     2 ar
     2     1    10 ar
     3     1    14 1
     4     2     3 ar
     5     2    15 1
     6     3     4 1
     7     3     8 ar
     8     4     5 1
     9     4     6 2
    10     4     7 2
    11     8     9 ar
    12     8    16 1
    13     9    10 ar
    14     9    17 1
    15    10    11 1
    16    11    12 1
    17    11    18 1
    18    11    19 1
    19    12    13 1
    20    12    20 1
    21    12    21 1
    22    13    22 1
    23    13    23 1
    24    24    13 1
@<TRIPOS>SUBSTRUCTURE
     1 AES         1 TEMP              0 ****  ****    0 ROOT
