@<TRIPOS>MOLECULE
molecule
   40    44     1     0     0
SMALL
bcc


@<TRIPOS>ATOM
      1 CAH          0.0000     0.0000     0.0000 ca         1 AEV      -0.044000
      2 CAF          1.3800     0.0000     0.0000 ca         1 AEV      -0.134000
      3 CAG          2.0780     0.0000     1.1940 ca         1 AEV      -0.100000
      4 CAJ          1.3960    -0.0020     2.4000 ca         1 AEV      -0.108000
      5 CAW          0.0220    -0.0020     2.4120 ca         1 AEV      -0.102300
      6 CAU         -0.6940    -0.0020     1.2110 ca         1 AEV      -0.175600
      7 CAP         -2.1320    -0.0020     1.5370 c          1 AEV       0.753200
      8 OAB         -3.0290    -0.0030     0.7180 o          1 AEV      -0.561500
      9 OAO         -2.3070    -0.0040     2.8690 os         1 AEV      -0.370900
     10 CBA         -1.0050    -0.0030     3.5160 c3         1 AEV       0.286600
     11 CAX         -0.8500    -1.2390     4.3660 cc         1 AEV      -0.328400
     12 CAS         -1.0230    -2.5730     3.9290 c          1 AEV       0.727700
     13 OAC         -1.3230    -2.9280     2.8030 o          1 AEV      -0.548500
     14 CAQ         -0.5160    -1.2670     5.6720 cd         1 AEV       0.170800
     15 CAA         -0.2360    -0.0630     6.5350 c3         1 AEV      -0.045900
     16 NAM         -0.4780    -2.5690     6.0810 na         1 AEV      -0.556000
     17 NBB         -0.7950    -3.3810     4.9840 n          1 AEV      -0.200700
     18 CAV         -0.8620    -4.7630     4.9840 cd         1 AEV       0.514400
     19 NAL         -0.6260    -5.5590     6.0670 na         1 AEV      -0.290300
     20 CAY         -0.7920    -6.8710     5.6560 ca         1 AEV      -0.086200
     21 CAK         -0.6860    -8.0990     6.2920 ca         1 AEV      -0.118000
     22 CAI         -0.9150    -9.2620     5.5850 ca         1 AEV      -0.104000
     23 CAR         -1.2520    -9.2120     4.2400 ca         1 AEV       0.016400
     24 ClD         -1.5370   -10.6850     3.3670 cl         1 AEV      -0.081400
     25 CAT         -1.3630    -8.0000     3.5910 ca         1 AEV       0.082400
     26 ClE         -1.7870    -7.9460     1.9090 cl         1 AEV      -0.052400
     27 CAZ         -1.1340    -6.8130     4.2940 ca         1 AEV       0.125400
     28 NAN         -1.1640    -5.5000     3.9460 nc         1 AEV      -0.562100
     29 H1          -0.5430     0.0000    -0.9370 ha         1 AEV       0.151000
     30 H2           1.9190     0.0010    -0.9400 ha         1 AEV       0.139000
     31 H3           3.1610     0.0000     1.1870 ha         1 AEV       0.135000
     32 H4           1.9460    -0.0020     3.3340 ha         1 AEV       0.128000
     33 H5          -0.8950     0.8870     4.1230 h1         1 AEV       0.078700
     34 H6          -0.1920    -0.3660     7.5740 hc         1 AEV       0.064700
     35 H7           0.7110     0.3760     6.2460 hc         1 AEV       0.064700
     36 H8          -1.0270     0.6660     6.4050 hc         1 AEV       0.064700
     37 H9          -0.2580    -2.8880     7.0040 hn         1 AEV       0.482800
     38 H10         -0.5130    -5.2490     7.0120 hn         1 AEV       0.296700
     39 H11         -0.4230    -8.1450     7.3420 ha         1 AEV       0.135000
     40 H12         -0.8310   -10.2200     6.0830 ha         1 AEV       0.153000
@<TRIPOS>BOND
     1     8     7 2
     2    24    23 1
     3    22    23 ar
     4    22    21 ar
     5    23    25 ar
     6     7     9 1
     7     7     6 1
     8    21    20 ar
     9    25    26 1
    10    25    27 ar
    11     1     6 ar
    12     1     2 ar
    13    20    27 ar
    14    20    19 1
    15    27    28 1
    16     9    10 1
    17     6     5 ar
    18    13    12 2
    19    19    18 1
    20    28    18 2
    21    18    17 1
    22     2     3 ar
    23    12    17 1
    24    12    11 1
    25    17    16 1
    26    10     5 1
    27    10    11 1
    28     5     4 ar
    29    11    14 2
    30    16    14 1
    31    14    15 1
    32     3     4 ar
    33     1    29 1
    34     2    30 1
    35     3    31 1
    36     4    32 1
    37    10    33 1
    38    15    34 1
    39    15    35 1
    40    15    36 1
    41    16    37 1
    42    19    38 1
    43    21    39 1
    44    22    40 1
@<TRIPOS>SUBSTRUCTURE
     1 AEV         1 TEMP              0 ****  ****    0 ROOT
