@<TRIPOS>MOLECULE
AEV
   40    44     1     0     0
SMALL
bcc


@<TRIPOS>ATOM
      1 CAH          0.0000     0.0000     0.0000 ca         1 AEV      -0.005000
      2 CAF          1.3800     0.0000     0.0000 ca         1 AEV      -0.113000
      3 CAG          2.0780     0.0000     1.1940 ca         1 AEV      -0.073000
      4 CAJ          1.3960    -0.0020     2.4000 ca         1 AEV      -0.080000
      5 CAW          0.0220    -0.0020     2.4120 ca         1 AEV      -0.112300
      6 CAU         -0.6940    -0.0020     1.2110 ca         1 AEV      -0.186600
      7 CAP         -2.1320    -0.0020     1.5370 c          1 AEV       0.827200
      8 OAB         -3.0290    -0.0030     0.7180 o          1 AEV      -0.612500
      9 OAO         -2.3070    -0.0040     2.8690 os         1 AEV      -0.368900
     10 CBA         -1.0050    -0.0030     3.5160 c3         1 AEV       0.360600
     11 CAX         -0.8500    -1.2390     4.3660 cc         1 AEV      -0.357400
     12 CAS         -1.0230    -2.5730     3.9290 c          1 AEV       0.639700
     13 OAC         -1.3230    -2.9280     2.8030 o          1 AEV      -0.599500
     14 CAQ         -0.5160    -1.2670     5.6720 cd         1 AEV       0.007800
     15 CAA         -0.2360    -0.0630     6.5350 c3         1 AEV       0.082100
     16 NAM         -0.4780    -2.5690     6.0810 na         1 AEV      -0.239000
     17 NBB         -0.7950    -3.3810     4.9840 n          1 AEV       0.070300
     18 CAV         -0.8620    -4.7630     4.9840 cc         1 AEV       0.166400
     19 NAL         -0.6260    -5.5590     6.0670 na         1 AEV       0.225700
     20 CAY         -0.7920    -6.8710     5.6560 ca         1 AEV      -0.260200
     21 CAK         -0.6860    -8.0990     6.2920 ca         1 AEV      -0.080000
     22 CAI         -0.9150    -9.2620     5.5850 ca         1 AEV      -0.080000
     23 CAR         -1.2520    -9.2120     4.2400 ca         1 AEV      -0.055600
     24 ClD         -1.5370   -10.6850     3.3670 cl         1 AEV      -0.001400
     25 CAT         -1.3630    -8.0000     3.5910 ca         1 AEV       0.011400
     26 ClE         -1.7870    -7.9460     1.9090 cl         1 AEV       0.034600
     27 CAZ         -1.1340    -6.8130     4.2940 ca         1 AEV       0.088400
     28 NAN         -1.1640    -5.5000     3.9460 nd         1 AEV      -0.467100
     29 H1          -0.5430     0.0000    -0.9370 ha         1 AEV       0.115000
     30 H2           1.9190     0.0010    -0.9400 ha         1 AEV       0.108000
     31 H3           3.1610     0.0000     1.1870 ha         1 AEV       0.103000
     32 H4           1.9460    -0.0020     3.3340 ha         1 AEV       0.099000
     33 H5          -0.8950     0.8870     4.1230 h1         1 AEV       0.031700
     34 H6          -0.1920    -0.3660     7.5740 hc         1 AEV       0.019700
     35 H7           0.7110     0.3760     6.2460 hc         1 AEV       0.019700
     36 H8          -1.0270     0.6660     6.4050 hc         1 AEV       0.019700
     37 H9          -0.2580    -2.8880     7.0040 hn         1 AEV       0.316800
     38 H10         -0.5130    -5.2490     7.0120 hn         1 AEV       0.122700
     39 H11         -0.4230    -8.1450     7.3420 ha         1 AEV       0.103000
     40 H12         -0.8310   -10.2200     6.0830 ha         1 AEV       0.118000
@<TRIPOS>BOND
     1     1     2 ar  
     2     1     6 ar  
     3     1    29 1   
     4     2     3 ar  
     5     2    30 1   
     6     3     4 ar  
     7     3    31 1   
     8     4     5 ar  
     9     4    32 1   
    10     5     6 ar  
    11     5    10 1   
    12     6     7 1   
    13     7     8 2   
    14     7     9 1   
    15     9    10 1   
    16    10    11 1   
    17    10    33 1   
    18    11    12 1   
    19    11    14 2   
    20    12    13 2   
    21    12    17 1   
    22    14    15 1   
    23    14    16 1   
    24    15    34 1   
    25    15    35 1   
    26    15    36 1   
    27    16    17 1   
    28    16    37 1   
    29    17    18 1   
    30    18    19 1   
    31    18    28 2   
    32    19    20 1   
    33    19    38 1   
    34    20    21 ar  
    35    20    27 ar  
    36    21    22 ar  
    37    21    39 1   
    38    22    23 ar  
    39    22    40 1   
    40    23    24 1   
    41    23    25 ar  
    42    25    26 1   
    43    25    27 ar  
    44    27    28 1   
@<TRIPOS>SUBSTRUCTURE
     1 AEV         1 TEMP              0 ****  ****    0 ROOT
