@<TRIPOS>MOLECULE
molecule
   48    49     1     0     0
SMALL
bcc


@<TRIPOS>ATOM
      1 CAV          0.0000     0.0000     0.0000 c3         1 AEW      -0.092100
      2 CAU          1.5300     0.0000     0.0000 c3         1 AEW      -0.084400
      3 CAT          2.0390     0.0000     1.4430 c3         1 AEW      -0.081400
      4 CAS          3.5690    -0.0010     1.4450 c3         1 AEW      -0.083400
      5 CAR          4.0790    -0.0010     2.8870 c3         1 AEW      -0.077400
      6 CAQ          5.6090    -0.0010     2.8880 c3         1 AEW      -0.047200
      7 CAM          6.1100    -0.0010     4.3090 cc         1 AEW       0.001800
      8 CAH          6.4360    -1.1740     4.9250 cd         1 AEW      -0.265200
      9 CAC          6.9010    -1.1480     6.2510 c          1 AEW       0.682700
     10 OAA          7.1960    -2.1900     6.8140 o          1 AEW      -0.652500
     11 CAN          6.2520     1.2050     5.0100 cc         1 AEW      -0.246000
     12 CAI          6.7040     1.1950     6.2860 cd         1 AEW       0.007600
     13 NAD          7.0220     0.0260     6.9000 n          1 AEW      -0.320000
     14 CAE          7.5090     0.0430     8.2810 c3         1 AEW       0.140300
     15 CAF          9.0160     0.0650     8.2830 ca         1 AEW      -0.101300
     16 CAG          9.7060    -0.0450     9.4750 ca         1 AEW      -0.086300
     17 CAB          8.9530    -0.1870    10.7720 c3         1 AEW      -0.049800
     18 CAJ          9.7050     0.1900     7.0920 ca         1 AEW      -0.119000
     19 CAO         11.0890     0.2090     7.0890 ca         1 AEW      -0.124000
     20 CAP         11.7850     0.1040     8.2770 ca         1 AEW      -0.139000
     21 CAK         11.0950    -0.0250     9.4750 ca         1 AEW       0.165600
     22 NAL         11.7960    -0.1360    10.6780 nv         1 AEW      -0.988200
     23 HAV1        -0.3610    -0.8900     0.5020 hc         1 AEW       0.033033
     24 HAV2        -0.3610     0.8790     0.5200 hc         1 AEW       0.033033
     25 HAV3        -0.3610     0.0100    -1.0210 hc         1 AEW       0.033033
     26 HAU1         1.8910     0.8850    -0.5110 hc         1 AEW       0.040200
     27 HAU2         1.8910    -0.8850    -0.5110 hc         1 AEW       0.040200
     28 HAT1         1.6770    -0.8840     1.9540 hc         1 AEW       0.042200
     29 HAT2         1.6780     0.8850     1.9540 hc         1 AEW       0.042200
     30 HAS1         3.9320     0.8830     0.9340 hc         1 AEW       0.041700
     31 HAS2         3.9300    -0.8860     0.9350 hc         1 AEW       0.041700
     32 HAR1         3.7170     0.8840     3.3970 hc         1 AEW       0.046700
     33 HAR2         3.7170    -0.8850     3.3970 hc         1 AEW       0.046700
     34 HAQ1         5.9700     0.8830     2.3780 hc         1 AEW       0.054200
     35 HAQ2         5.9700    -0.8860     2.3780 hc         1 AEW       0.054200
     36 HAH          6.1950    -2.1190     4.4540 ha         1 AEW       0.164000
     37 HAN          6.0020     2.1440     4.5310 ha         1 AEW       0.146000
     38 HAI          6.8100     2.1290     6.8240 h4         1 AEW       0.154000
     39 HAE1         7.1340     0.9250     8.7850 h1         1 AEW       0.076700
     40 HAE2         7.1600    -0.8430     8.7970 h1         1 AEW       0.076700
     41 HAJ          9.1620     0.2720     6.1590 ha         1 AEW       0.136000
     42 HAB1         8.2350     0.6200    10.8620 hc         1 AEW       0.045367
     43 HAB2         9.6490    -0.1450    11.6000 hc         1 AEW       0.045367
     44 HAB3         8.4320    -1.1370    10.7860 hc         1 AEW       0.045367
     45 HAO         11.6270     0.3080     6.1530 ha         1 AEW       0.131000
     46 HAP         12.8680     0.1200     8.2740 ha         1 AEW       0.134000
     47 HAL1        12.0580     0.6880    11.1820 hn         1 AEW       0.427300
     48 HAL2        12.0720    -1.0370    11.0150 hn         1 AEW       0.427300
@<TRIPOS>BOND
     1     1     2 1
     2     2     3 1
     3     3     4 1
     4     4     5 1
     5     5     6 1
     6     6     7 1
     7     7     8 2
     8     7    11 1
     9     8     9 1
    10     9    10 2
    11     9    13 1
    12    11    12 2
    13    12    13 1
    14    13    14 1
    15    14    15 1
    16    15    16 ar
    17    15    18 ar
    18    16    17 1
    19    16    21 ar
    20    18    19 ar
    21    19    20 ar
    22    20    21 ar
    23    21    22 1
    24     1    23 1
    25     1    24 1
    26     1    25 1
    27     2    26 1
    28     2    27 1
    29     3    28 1
    30     3    29 1
    31     4    30 1
    32     4    31 1
    33     5    32 1
    34     5    33 1
    35     6    34 1
    36     6    35 1
    37     8    36 1
    38    11    37 1
    39    12    38 1
    40    14    39 1
    41    14    40 1
    42    18    41 1
    43    17    42 1
    44    17    43 1
    45    17    44 1
    46    19    45 1
    47    20    46 1
    48    22    47 1
    49    22    48 1
@<TRIPOS>SUBSTRUCTURE
     1 AEW         1 TEMP              0 ****  ****    0 ROOT
