@<TRIPOS>MOLECULE
AEW
   48    49     1     0     0
SMALL
bcc


@<TRIPOS>ATOM
      1 CAV          0.0000     0.0000     0.0000 c3         1 AEW       0.005900
      2 CAU          1.5300     0.0000     0.0000 c3         1 AEW      -0.028400
      3 CAT          2.0390     0.0000     1.4430 c3         1 AEW      -0.029400
      4 CAS          3.5690    -0.0010     1.4450 c3         1 AEW      -0.029400
      5 CAR          4.0790    -0.0010     2.8870 c3         1 AEW      -0.025400
      6 CAQ          5.6090    -0.0010     2.8880 c3         1 AEW       0.018800
      7 CAM          6.1100    -0.0010     4.3090 cc         1 AEW      -0.008200
      8 CAH          6.4360    -1.1740     4.9250 cd         1 AEW      -0.242200
      9 CAC          6.9010    -1.1480     6.2510 c          1 AEW       0.586700
     10 OAA          7.1960    -2.1900     6.8140 o          1 AEW      -0.699500
     11 CAN          6.2520     1.2050     5.0100 cc         1 AEW      -0.208000
     12 CAI          6.7040     1.1950     6.2860 cd         1 AEW      -0.131400
     13 NAD          7.0220     0.0260     6.9000 n          1 AEW       0.117000
     14 CAE          7.5090     0.0430     8.2810 c3         1 AEW       0.071300
     15 CAF          9.0160     0.0650     8.2830 ca         1 AEW      -0.104300
     16 CAG          9.7060    -0.0450     9.4750 ca         1 AEW      -0.082300
     17 CAB          8.9530    -0.1870    10.7720 c3         1 AEW       0.051200
     18 CAJ          9.7050     0.1900     7.0920 ca         1 AEW      -0.105000
     19 CAO         11.0890     0.2090     7.0890 ca         1 AEW      -0.091000
     20 CAP         11.7850     0.1040     8.2770 ca         1 AEW      -0.110000
     21 CAK         11.0950    -0.0250     9.4750 ca         1 AEW       0.034600
     22 NAL         11.7960    -0.1360    10.6780 nv         1 AEW      -0.555200
     23 HAV1        -0.3610    -0.8900     0.5020 hc         1 AEW       0.000367
     24 HAV2        -0.3610     0.8790     0.5200 hc         1 AEW       0.000367
     25 HAV3        -0.3610     0.0100    -1.0210 hc         1 AEW       0.000367
     26 HAU1         1.8910     0.8850    -0.5110 hc         1 AEW       0.012200
     27 HAU2         1.8910    -0.8850    -0.5110 hc         1 AEW       0.012200
     28 HAT1         1.6770    -0.8840     1.9540 hc         1 AEW       0.015700
     29 HAT2         1.6780     0.8850     1.9540 hc         1 AEW       0.015700
     30 HAS1         3.9320     0.8830     0.9340 hc         1 AEW       0.014700
     31 HAS2         3.9300    -0.8860     0.9350 hc         1 AEW       0.014700
     32 HAR1         3.7170     0.8840     3.3970 hc         1 AEW       0.018700
     33 HAR2         3.7170    -0.8850     3.3970 hc         1 AEW       0.018700
     34 HAQ1         5.9700     0.8830     2.3780 hc         1 AEW       0.023200
     35 HAQ2         5.9700    -0.8860     2.3780 hc         1 AEW       0.023200
     36 HAH          6.1950    -2.1190     4.4540 ha         1 AEW       0.140000
     37 HAN          6.0020     2.1440     4.5310 ha         1 AEW       0.124000
     38 HAI          6.8100     2.1290     6.8240 h4         1 AEW       0.128000
     39 HAE1         7.1340     0.9250     8.7850 h1         1 AEW       0.048700
     40 HAE2         7.1600    -0.8430     8.7970 h1         1 AEW       0.048700
     41 HAJ          9.1620     0.2720     6.1590 ha         1 AEW       0.110000
     42 HAB1         8.2350     0.6200    10.8620 hc         1 AEW       0.012367
     43 HAB2         9.6490    -0.1450    11.6000 hc         1 AEW       0.012367
     44 HAB3         8.4320    -1.1370    10.7860 hc         1 AEW       0.012367
     45 HAO         11.6270     0.3080     6.1530 ha         1 AEW       0.103000
     46 HAP         12.8680     0.1200     8.2740 ha         1 AEW       0.107000
     47 HAL1        12.0580     0.6880    11.1820 hn         1 AEW       0.273300
     48 HAL2        12.0720    -1.0370    11.0150 hn         1 AEW       0.273300
@<TRIPOS>BOND
     1     1     2 1   
     2     1    23 1   
     3     1    24 1   
     4     1    25 1   
     5     2     3 1   
     6     2    26 1   
     7     2    27 1   
     8     3     4 1   
     9     3    28 1   
    10     3    29 1   
    11     4     5 1   
    12     4    30 1   
    13     4    31 1   
    14     5     6 1   
    15     5    32 1   
    16     5    33 1   
    17     6     7 1   
    18     6    34 1   
    19     6    35 1   
    20     7     8 2   
    21     7    11 1   
    22     8     9 1   
    23     8    36 1   
    24     9    10 2   
    25     9    13 1   
    26    11    12 2   
    27    11    37 1   
    28    12    13 1   
    29    12    38 1   
    30    13    14 1   
    31    14    15 1   
    32    14    39 1   
    33    14    40 1   
    34    15    16 ar  
    35    15    18 ar  
    36    16    17 1   
    37    16    21 ar  
    38    17    42 1   
    39    17    43 1   
    40    17    44 1   
    41    18    19 ar  
    42    18    41 1   
    43    19    20 ar  
    44    19    45 1   
    45    20    21 ar  
    46    20    46 1   
    47    21    22 1   
    48    22    47 1   
    49    22    48 1   
@<TRIPOS>SUBSTRUCTURE
     1 AEW         1 TEMP              0 ****  ****    0 ROOT
