@<TRIPOS>MOLECULE
molecule
   28    30     1     0     0
SMALL
bcc


@<TRIPOS>ATOM
      1 C05          0.0000     0.0000     0.0000 ca         1 AEY      -0.103000
      2 C06          1.3820     0.0000     0.0000 ca         1 AEY      -0.106300
      3 C01          0.0000    -0.0060     2.3940 ca         1 AEY      -0.114000
      4 N14          3.4550     0.4840    -3.5920 nb         1 AEY      -0.822000
      5 C11          2.1360     0.0000    -1.3060 c3         1 AEY       0.196700
      6 C02          1.3820    -0.0000     2.3940 ca         1 AEY      -0.132000
      7 C03         -0.6910     0.0010     1.1980 ca         1 AEY      -0.132000
      8 C04          2.0740     0.0000     1.1970 ca         1 AEY      -0.103000
      9 C10          4.1150     0.6470    -4.7340 ca         1 AEY       0.968900
     10 C09          3.0450     1.5250    -2.8810 ca         1 AEY       0.730600
     11 C07          3.3190     2.8100    -3.3570 ca         1 AEY      -0.408800
     12 N12          3.0760     4.0910    -2.9330 na         1 AEY       0.042900
     13 N15          3.5760     4.9010    -3.8030 nc         1 AEY      -0.129400
     14 N16          4.1370     4.2670    -4.7740 nd         1 AEY      -0.307000
     15 C08          4.0190     2.9440    -4.5700 ca         1 AEY       0.597300
     16 N13          4.3950     1.8420    -5.2220 nb         1 AEY      -0.722000
     17 O18          2.3740     1.3470    -1.7180 os         1 AEY      -0.441100
     18 H1          -0.5420     0.0050    -0.9380 ha         1 AEY       0.134000
     19 H2          -0.5410    -0.0060     3.3320 ha         1 AEY       0.133000
     20 H3           1.5500    -0.5110    -2.0610 h1         1 AEY       0.059700
     21 H4           3.0820    -0.5110    -1.1760 h1         1 AEY       0.059700
     22 H5           1.9240    -0.0030     3.3320 ha         1 AEY       0.134000
     23 H6          -1.7740    -0.0020     1.1980 ha         1 AEY       0.134000
     24 H7           3.1570     0.0020     1.1960 ha         1 AEY       0.134000
     25 H8           3.9200    -0.8730    -6.1330 hn         1 AEY       0.448800
     26 H9           5.4210    -0.8750    -5.2660 hn         1 AEY       0.448800
     27 H10          2.5930     4.3520    -2.0960 hn         1 AEY       0.351700
     28 N17          4.5200    -0.4750    -5.4380 nv         1 AEY      -1.053500
@<TRIPOS>BOND
     1     5    17 1
     2     5     2 1
     3    17    10 1
     4    10     4 ar
     5    10    11 ar
     6     2     1 ar
     7     2     8 ar
     8    12    11 1
     9    12    13 1
    10     1     7 ar
    11     4     9 ar
    12    11    15 ar
    13    13    14 2
    14     8     6 ar
    15     9    28 1
    16     9    16 ar
    17    15    14 1
    18    15    16 ar
    19     7     3 ar
    20     6     3 ar
    21     1    18 1
    22     3    19 1
    23     5    20 1
    24     5    21 1
    25     6    22 1
    26     7    23 1
    27     8    24 1
    28    28    25 1
    29    28    26 1
    30    12    27 1
@<TRIPOS>SUBSTRUCTURE
     1 AEY         1 TEMP              0 ****  ****    0 ROOT
