@<TRIPOS>MOLECULE
AEY
   28    30     1     0     0
SMALL
bcc


@<TRIPOS>ATOM
      1 C05          0.0000     0.0000     0.0000 ca         1 AEY      -0.075000
      2 C06          1.3820     0.0000     0.0000 ca         1 AEY      -0.124300
      3 C01          0.0000    -0.0060     2.3940 ca         1 AEY      -0.087000
      4 N14          3.4550     0.4840    -3.5920 nb         1 AEY      -0.715000
      5 C11          2.1360     0.0000    -1.3060 c3         1 AEY       0.280700
      6 C02          1.3820    -0.0000     2.3940 ca         1 AEY      -0.105000
      7 C03         -0.6910     0.0010     1.1980 ca         1 AEY      -0.105000
      8 C04          2.0740     0.0000     1.1970 ca         1 AEY      -0.075000
      9 C10          4.1150     0.6470    -4.7340 ca         1 AEY       0.743900
     10 C09          3.0450     1.5250    -2.8810 ca         1 AEY       0.707600
     11 C07          3.3190     2.8100    -3.3570 ca         1 AEY      -0.598800
     12 N12          3.0760     4.0910    -2.9330 na         1 AEY       0.578900
     13 N15          3.5760     4.9010    -3.8030 nc         1 AEY      -0.316400
     14 N16          4.1370     4.2670    -4.7740 nd         1 AEY      -0.265000
     15 C08          4.0190     2.9440    -4.5700 ca         1 AEY       0.528300
     16 N13          4.3950     1.8420    -5.2220 nb         1 AEY      -0.592000
     17 O18          2.3740     1.3470    -1.7180 os         1 AEY      -0.433100
     18 H1          -0.5420     0.0050    -0.9380 ha         1 AEY       0.107000
     19 H2          -0.5410    -0.0060     3.3320 ha         1 AEY       0.104000
     20 H3           1.5500    -0.5110    -2.0610 h1         1 AEY       0.017700
     21 H4           3.0820    -0.5110    -1.1760 h1         1 AEY       0.017700
     22 H5           1.9240    -0.0030     3.3320 ha         1 AEY       0.105000
     23 H6          -1.7740    -0.0020     1.1980 ha         1 AEY       0.105000
     24 H7           3.1570     0.0020     1.1960 ha         1 AEY       0.107000
     25 H8           3.9200    -0.8730    -6.1330 hn         1 AEY       0.281800
     26 H9           5.4210    -0.8750    -5.2660 hn         1 AEY       0.281800
     27 H10          2.5930     4.3520    -2.0960 hn         1 AEY       0.159700
     28 N17          4.5200    -0.4750    -5.4380 nv         1 AEY      -0.634500
@<TRIPOS>BOND
     1     1     2 ar  
     2     1     7 ar  
     3     1    18 1   
     4     2     5 1   
     5     2     8 ar  
     6     3     6 ar  
     7     3     7 ar  
     8     3    19 1   
     9     4     9 ar  
    10     4    10 ar  
    11     5    17 1   
    12     5    20 1   
    13     5    21 1   
    14     6     8 ar  
    15     6    22 1   
    16     7    23 1   
    17     8    24 1   
    18     9    16 ar  
    19     9    28 1   
    20    10    11 ar  
    21    10    17 1   
    22    11    12 1   
    23    11    15 ar  
    24    12    13 1   
    25    12    27 1   
    26    13    14 2   
    27    14    15 1   
    28    15    16 ar  
    29    25    28 1   
    30    26    28 1   
@<TRIPOS>SUBSTRUCTURE
     1 AEY         1 TEMP              0 ****  ****    0 ROOT
