@<TRIPOS>MOLECULE
molecule
   26    27     1     0     0
SMALL
bcc


@<TRIPOS>ATOM
      1 C4           0.0000     0.0000     0.0000 c3         1 AEZ       0.150100
      2 C5           1.5340     0.0000     0.0000 c3         1 AEZ       0.003600
      3 C6           2.0480     1.2510    -0.7150 c3         1 AEZ       0.139400
      4 C7           2.0100     0.0000     1.4290 cc         1 AEZ      -0.221900
      5 C10          3.1950     0.1630     3.2530 cc         1 AEZ       0.388400
      6 C3          -0.5080    -1.1010     0.9350 c3         1 AEZ       0.127100
      7 C1           1.2380    -0.3150     2.4910 cd         1 AEZ       0.292600
      8 C2          -0.2130    -0.7160     2.3900 c3         1 AEZ       0.130800
      9 O2          -0.4640    -1.8330     3.2440 oh         1 AEZ      -0.588800
     10 O4          -0.4760    -0.2430    -1.3250 oh         1 AEZ      -0.600800
     11 O3          -1.9180    -1.2590     0.7620 oh         1 AEZ      -0.605800
     12 O6           3.4730     1.1920    -0.8160 oh         1 AEZ      -0.628800
     13 N8           1.9870    -0.2060     3.5910 nd         1 AEZ      -0.679000
     14 N9           3.2480     0.3020     1.9090 na         1 AEZ      -0.268900
     15 H1          -0.3590     0.9610     0.3480 h1         1 AEZ       0.047700
     16 H2           1.8970    -0.8880    -0.5030 hc         1 AEZ       0.088700
     17 H3           1.6180     1.3020    -1.7080 h1         1 AEZ       0.036200
     18 H4           1.7630     2.1320    -0.1520 h1         1 AEZ       0.036200
     19 H5           4.0180     0.3290     3.9380 h5         1 AEZ       0.066100
     20 H6          -0.0050    -2.0310     0.7010 h1         1 AEZ       0.065700
     21 H7          -0.8410     0.1180     2.6790 h1         1 AEZ       0.053700
     22 H8          -0.9860    -1.5560     3.9790 ho         1 AEZ       0.411000
     23 H9          -1.1590     0.3740    -1.5310 ho         1 AEZ       0.413000
     24 H10         -2.1100    -2.1580     0.5520 ho         1 AEZ       0.416000
     25 H11          3.7560     1.6940    -1.5610 ho         1 AEZ       0.411000
     26 H12          4.0460     0.5750     1.3700 hn         1 AEZ       0.317700
@<TRIPOS>BOND
     1    10     1 1
     2    11     6 1
     3     1     6 1
     4     1     2 1
     5     6     8 1
     6     3     2 1
     7     3    12 1
     8     2     4 1
     9     8     9 1
    10     8     7 1
    11     4     7 2
    12     4    14 1
    13     7    13 1
    14    14     5 1
    15    13     5 2
    16     1    15 1
    17     2    16 1
    18     3    17 1
    19     3    18 1
    20     5    19 1
    21     6    20 1
    22     8    21 1
    23     9    22 1
    24    10    23 1
    25    11    24 1
    26    12    25 1
    27    14    26 1
@<TRIPOS>SUBSTRUCTURE
     1 AEZ         1 TEMP              0 ****  ****    0 ROOT
