@<TRIPOS>MOLECULE
molecule
   25    27     1     0     0
SMALL
bcc


@<TRIPOS>ATOM
      1 N            0.0000     0.0000     0.0000 nv         1 AF       -0.990200
      2 C2           1.3960     0.0000     0.0000 ca         1 AF        0.169600
      3 C3           2.0910     0.0000     1.2040 ca         1 AF       -0.146000
      4 C4           3.4690    -0.0000     1.2080 ca         1 AF       -0.100000
      5 C4A          4.1720    -0.0000     0.0000 cp         1 AF       -0.050000
      6 C4B          5.6290    -0.0000    -0.2790 cp         1 AF       -0.039000
      7 C5           6.7290    -0.0000     0.5790 ca         1 AF       -0.105000
      8 C6           8.0070    -0.0000     0.0600 ca         1 AF       -0.130000
      9 C7           8.2040    -0.0000    -1.3080 ca         1 AF       -0.124000
     10 C8           7.1180    -0.0000    -2.1650 ca         1 AF       -0.112000
     11 C8A          5.8360    -0.0000    -1.6550 ca         1 AF       -0.088300
     12 C9           4.4810     0.0010    -2.3200 c3         1 AF        0.013200
     13 C9A          3.4700    -0.0000    -1.2010 ca         1 AF       -0.082300
     14 C1           2.0920    -0.0040    -1.2020 ca         1 AF       -0.130000
     15 HN1         -0.5000     0.8670    -0.0070 hn         1 AF        0.427800
     16 HN2         -0.5000    -0.8670    -0.0030 hn         1 AF        0.427800
     17 H3           1.5480     0.0000     2.1410 ha         1 AF        0.137000
     18 H4           4.0070    -0.0000     2.1480 ha         1 AF        0.130000
     19 H5           6.5790    -0.0000     1.6520 ha         1 AF        0.130000
     20 H6           8.8610    -0.0000     0.7280 ha         1 AF        0.130000
     21 H7           9.2090    -0.0000    -1.7100 ha         1 AF        0.131000
     22 H8           7.2740    -0.0000    -3.2370 ha         1 AF        0.129000
     23 H91          4.3650     0.8920    -2.9250 hc         1 AF        0.069200
     24 H92          4.3650    -0.8880    -2.9270 hc         1 AF        0.069200
     25 H1           1.5520    -0.0100    -2.1410 ha         1 AF        0.135000
@<TRIPOS>BOND
     1     1     2 1
     2     1    15 1
     3     1    16 1
     4     2     3 ar
     5     2    14 ar
     6     3     4 ar
     7     3    17 1
     8     4     5 ar
     9     4    18 1
    10     5     6 1
    11     5    13 ar
    12     6     7 ar
    13     6    11 ar
    14     7     8 ar
    15     7    19 1
    16     8     9 ar
    17     8    20 1
    18     9    10 ar
    19     9    21 1
    20    10    11 ar
    21    10    22 1
    22    11    12 1
    23    12    13 1
    24    12    23 1
    25    12    24 1
    26    13    14 ar
    27    14    25 1
@<TRIPOS>SUBSTRUCTURE
     1 AF          1 TEMP              0 ****  ****    0 ROOT
