@<TRIPOS>MOLECULE
AF0
   50    52     1     0     0
SMALL
bcc


@<TRIPOS>ATOM
      1 C1           0.0000     0.0000     0.0000 ca         1 AF0      -0.112300
      2 C2           1.3840     0.0000     0.0000 ca         1 AF0       0.115900
      3 C3          -0.6920    -0.0000     1.1980 ca         1 AF0       0.115900
      4 C4          -0.7530     0.0060    -1.3060 c3         1 AF0       0.048700
      5 C5           2.0760     0.0000     1.2010 ca         1 AF0       0.097900
      6 C6           1.3840    -0.0000     2.4000 ca         1 AF0      -0.100300
      7 C7           0.0000    -0.0000     2.3990 ca         1 AF0       0.097900
      8 C8           2.6730    -1.0870    -7.6180 c3         1 AF0      -0.048400
      9 C9           1.4870    -0.3750    -8.2730 c3         1 AF0       0.019000
     10 C10         -1.4020     0.9650    -4.3400 ca         1 AF0       0.009600
     11 C11         -0.4640     1.6370    -5.1130 ca         1 AF0      -0.050000
     12 C12         -1.7940    -0.3220    -4.6870 ca         1 AF0      -0.086000
     13 C13         -1.2510    -0.9320    -5.7990 ca         1 AF0      -0.129300
     14 C14         -0.3120    -0.2600    -6.5720 ca         1 AF0      -0.053400
     15 C15         -1.6720    -2.3280    -6.1790 c3         1 AF0       0.041900
     16 C16          0.0790     1.0270    -6.2250 ca         1 AF0      -0.140000
     17 C17          2.1370    -0.0020     3.7050 c3         1 AF0       0.063200
     18 C18         -1.6690    -2.4670    -7.7020 c3         1 AF0      -0.096400
     19 C19         -0.3740    -1.9400    -8.2610 c          1 AF0       0.613500
     20 C20          3.9780    -0.5590    -8.2170 c3         1 AF0       0.012900
     21 F1           3.4280    -0.0010     1.2010 f          1 AF0      -0.104400
     22 F2           2.0590    -0.0000    -1.1700 f          1 AF0      -0.100900
     23 F3          -2.0430    -0.0000     1.1970 f          1 AF0      -0.100900
     24 F4          -0.6760     0.0010     3.5680 f          1 AF0      -0.104400
     25 N1           0.2370    -0.8810    -7.7000 n          1 AF0       0.020000
     26 N2          -1.9480     1.5810    -3.2090 nu         1 AF0      -0.422500
     27 O1          -1.9140     2.3750    -0.9090 o          1 AF0      -0.569300
     28 O2           0.1220    -2.4760    -9.2290 o          1 AF0      -0.666500
     29 O3           0.1630     2.3250    -2.2540 o          1 AF0      -0.569300
     30 S           -1.0490     1.7190    -1.8250 s6         1 AF0       0.950900
     31 H1          -1.7020    -0.5020    -1.1780 h1         1 AF0       0.084700
     32 H2          -0.1690    -0.5050    -2.0620 h1         1 AF0       0.084700
     33 H3           2.5990    -2.1520    -7.7980 hc         1 AF0       0.023200
     34 H4           2.6630    -0.8990    -6.5520 hc         1 AF0       0.023200
     35 H5           1.4970    -0.5640    -9.3400 h1         1 AF0       0.042700
     36 H6           1.5610     0.6900    -8.0940 h1         1 AF0       0.042700
     37 H7          -0.1580     2.6410    -4.8420 ha         1 AF0       0.132000
     38 H8          -2.5260    -0.8460    -4.0840 ha         1 AF0       0.109000
     39 H9          -2.6780    -2.4990    -5.8150 hc         1 AF0       0.026700
     40 H10         -0.9620    -3.0320    -5.7620 hc         1 AF0       0.026700
     41 H11          0.8110     1.5510    -6.8270 ha         1 AF0       0.126000
     42 H12          2.6910    -0.9280     3.8010 hc         1 AF0       0.024700
     43 H13          2.8260     0.8340     3.7250 hc         1 AF0       0.024700
     44 H14          1.4360     0.0870     4.5260 hc         1 AF0       0.024700
     45 H15         -1.7740    -3.5130    -7.9660 hc         1 AF0       0.043700
     46 H16         -2.4950    -1.9010    -8.1150 hc         1 AF0       0.043700
     47 H17          4.8180    -1.0600    -7.7510 hc         1 AF0       0.003033
     48 H18          3.9900    -0.7490    -9.2830 hc         1 AF0       0.003033
     49 H19          4.0510     0.5080    -8.0400 hc         1 AF0       0.003033
     50 H20         -2.8760     1.9560    -3.2420 hn         1 AF0       0.353800
@<TRIPOS>BOND
     1     1     2 ar  
     2     1     3 ar  
     3     1     4 1   
     4     2     5 ar  
     5     2    22 1   
     6     3     7 ar  
     7     3    23 1   
     8     4    30 1   
     9     4    31 1   
    10     4    32 1   
    11     5     6 ar  
    12     5    21 1   
    13     6     7 ar  
    14     6    17 1   
    15     7    24 1   
    16     8     9 1   
    17     8    20 1   
    18     8    33 1   
    19     8    34 1   
    20     9    25 1   
    21     9    35 1   
    22     9    36 1   
    23    10    11 ar  
    24    10    12 ar  
    25    10    26 1   
    26    11    16 ar  
    27    11    37 1   
    28    12    13 ar  
    29    12    38 1   
    30    13    14 ar  
    31    13    15 1   
    32    14    16 ar  
    33    14    25 1   
    34    15    18 1   
    35    15    39 1   
    36    15    40 1   
    37    16    41 1   
    38    17    42 1   
    39    17    43 1   
    40    17    44 1   
    41    18    19 1   
    42    18    45 1   
    43    18    46 1   
    44    19    25 1   
    45    19    28 2   
    46    20    47 1   
    47    20    48 1   
    48    20    49 1   
    49    26    30 1   
    50    26    50 1   
    51    27    30 2   
    52    29    30 2   
@<TRIPOS>SUBSTRUCTURE
     1 AF0         1 TEMP              0 ****  ****    0 ROOT
