@<TRIPOS>MOLECULE
molecule
    4     3     1     0     0
SMALL
bcc


@<TRIPOS>ATOM
      1 Al           0.0000    -0.0010     0.0000 Al         1 AF3       1.140000
      2 F1           0.0230     0.0000    -1.7090 f          1 AF3      -0.380000
      3 F2           1.4690     0.0000     0.8750 f          1 AF3      -0.380000
      4 F3          -1.4920     0.0000     0.8340 f          1 AF3      -0.380000
@<TRIPOS>BOND
     1     1     2 1
     2     1     3 1
     3     1     4 1
@<TRIPOS>SUBSTRUCTURE
     1 AF3         1 TEMP              0 ****  ****    0 ROOT
