@<TRIPOS>MOLECULE
AF4
   65    67     1     0     0
SMALL
bcc


@<TRIPOS>ATOM
      1 C1         -0.2080    0.3720   -1.0070 c3        1 AF4     -0.150100
      2 C2          1.2900    0.6320   -0.9260 c3        1 AF4      0.144500
      3 C3          1.6090    1.5470    0.2440 c3        1 AF4     -0.150100
      4 N4          2.0360   -0.7000   -0.8050 n4        1 AF4     -0.813000
      5 C5          3.5070   -0.6490   -1.1600 c3        1 AF4      0.414000
      6 N6          3.7800   -0.4940   -2.6500 n4        1 AF4     -0.868600
      7 C7          4.2240   -1.8640   -0.6500 ca        1 AF4     -0.287300
      8 C10         5.2690   -1.6900    0.2710 ca        1 AF4     -0.072000
      9 C11         5.9600   -2.7940    0.7560 ca        1 AF4     -0.115000
     10 C8          3.8830   -3.1610   -1.0700 ca        1 AF4     -0.072000
     11 C9          4.5780   -4.2600   -0.5840 ca        1 AF4     -0.115000
     12 C12         5.6360   -4.1000    0.3370 ca        1 AF4      0.109000
     13 C13         6.3800   -5.2270    0.8360 cc        1 AF4     -0.249300
     14 C15         7.5720   -5.1660    1.5660 cd        1 AF4      0.377600
     15 O16         8.0110   -6.4290    1.8800 os        1 AF4     -0.327800
     16 C14         6.0690   -6.6370    0.6970 cc        1 AF4     -0.144300
     17 C17         7.0750   -7.3440    1.3430 cd        1 AF4      0.246200
     18 C18         7.3600   -8.7360    1.5750 ca        1 AF4     -0.018500
     19 C21         8.5180   -9.1160    2.2910 ca        1 AF4     -0.098500
     20 C22         8.8010  -10.4540    2.5190 ca        1 AF4     -0.080000
     21 C19         6.4990   -9.7400    1.0990 ca        1 AF4     -0.098500
     22 C20         6.7820  -11.0850    1.3270 ca        1 AF4     -0.080000
     23 C23         7.9340  -11.4510    2.0370 ca        1 AF4     -0.278300
     24 C24         8.2210  -12.9070    2.2680 c3        1 AF4      0.416000
     25 N25         9.4820  -13.2940    1.5060 n4        1 AF4     -0.871600
     26 N26         8.2860  -13.2150    3.7520 n4        1 AF4     -0.810000
     27 C27         7.8770  -14.6390    4.1350 c3        1 AF4      0.136500
     28 C29         8.8060  -15.6840    3.5490 c3        1 AF4     -0.156100
     29 C28         7.8320  -14.7500    5.6540 c3        1 AF4     -0.156100
     30 H30        -0.4780   -0.2870   -1.8690 hc        1 AF4      0.100533
     31 H32        -0.7220    1.3600   -1.1620 hc        1 AF4      0.100533
     32 H31        -0.6060   -0.0690   -0.0600 hc        1 AF4      0.100533
     33 H33         1.6370    1.1060   -1.8910 hx        1 AF4      0.081700
     34 H34         1.2580    1.1180    1.2170 hc        1 AF4      0.100533
     35 H35         1.0560    2.5140    0.0880 hc        1 AF4      0.100533
     36 H36         2.6960    1.7870    0.3150 hc        1 AF4      0.100533
     37 H37         1.9980   -0.9950    0.1880 hn        1 AF4      0.477300
     38 H5          3.9170    0.3020   -0.6670 hx        1 AF4      0.169700
     39 H38         3.4900   -1.3300   -3.1740 hn        1 AF4      0.488133
     40 H39         4.8050   -0.3950   -2.7570 hn        1 AF4      0.488133
     41 H42         5.5530   -0.6830    0.6240 ha        1 AF4      0.150000
     42 H43         6.7740   -2.6350    1.4850 ha        1 AF4      0.175500
     43 H40         3.0640   -3.3260   -1.7880 ha        1 AF4      0.150000
     44 H41         4.3010   -5.2720   -0.9270 ha        1 AF4      0.175500
     45 H45         8.2200   -4.3610    1.9250 h4        1 AF4      0.092100
     46 H44         5.2010   -7.0500    0.1850 ha        1 AF4      0.180000
     47 H48         9.2030   -8.3350    2.6720 ha        1 AF4      0.186500
     48 H49         9.7100  -10.7150    3.0840 ha        1 AF4      0.152000
     49 H46         5.5870   -9.4660    0.5400 ha        1 AF4      0.186500
     50 H47         6.0850  -11.8500    0.9430 ha        1 AF4      0.152000
     51 H24         7.3840  -13.5590    1.8410 hx        1 AF4      0.166700
     52 H50         9.7600  -14.2710    1.6790 hn        1 AF4      0.489467
     53 H51         9.2770  -13.1770    0.5000 hn        1 AF4      0.489467
     54 H52         7.6200  -12.5680    4.2110 hn        1 AF4      0.476800
     55 H53         6.8310  -14.7780    3.7200 hx        1 AF4      0.121700
     56 H57         9.8820  -15.4830    3.7740 hc        1 AF4      0.097700
     57 H59         8.5580  -16.6750    4.0290 hc        1 AF4      0.097700
     58 H58         8.6470  -15.8190    2.4520 hc        1 AF4      0.097700
     59 H54         8.8520  -14.6900    6.1060 hc        1 AF4      0.097700
     60 H55         7.1710  -13.9760    6.1160 hc        1 AF4      0.097700
     61 H56         7.4000  -15.7550    5.9130 hc        1 AF4      0.097700
     62 H421        1.5430   -1.4160   -1.3530 hn        1 AF4      0.477300
     63 H63         3.3260    0.3370   -3.0500 hn        1 AF4      0.488133
     64 H253       10.2640  -12.6660    1.7410 hn        1 AF4      0.489467
     65 H262        9.2150  -13.0190    4.1440 hn        1 AF4      0.476800
@<TRIPOS>BOND
     1    1    2 1   
     2    1   30 1   
     3    1   31 1   
     4    1   32 1   
     5    2    3 1   
     6    2    4 1   
     7    2   33 1   
     8    3   34 1   
     9    3   35 1   
    10    3   36 1   
    11    4    5 1   
    12    4   37 1   
    13    4   62 1   
    14    5    6 1   
    15    5    7 1   
    16    5   38 1   
    17    6   39 1   
    18    6   40 1   
    19    6   63 1   
    20    7    8 ar  
    21    7   10 ar  
    22    8    9 ar  
    23    8   41 1   
    24    9   12 ar  
    25    9   42 1   
    26   10   11 ar  
    27   10   43 1   
    28   11   12 ar  
    29   11   44 1   
    30   12   13 1   
    31   13   14 2   
    32   13   16 1   
    33   14   15 1   
    34   14   45 1   
    35   15   17 1   
    36   16   17 2   
    37   16   46 1   
    38   17   18 1   
    39   18   19 ar  
    40   18   21 ar  
    41   19   20 ar  
    42   19   47 1   
    43   20   23 ar  
    44   20   48 1   
    45   21   22 ar  
    46   21   49 1   
    47   22   23 ar  
    48   22   50 1   
    49   23   24 1   
    50   24   25 1   
    51   24   26 1   
    52   24   51 1   
    53   25   52 1   
    54   25   53 1   
    55   25   64 1   
    56   26   27 1   
    57   26   54 1   
    58   26   65 1   
    59   27   28 1   
    60   27   29 1   
    61   27   55 1   
    62   28   56 1   
    63   28   57 1   
    64   28   58 1   
    65   29   59 1   
    66   29   60 1   
    67   29   61 1   
@<TRIPOS>SUBSTRUCTURE
     1 AF4         1 TEMP              0 ****  ****    0 ROOT
