@<TRIPOS>MOLECULE
molecule
   47    51     1     0     0
SMALL
bcc


@<TRIPOS>ATOM
      1 N01          0.0000     0.0000     0.0000 na         1 AF5      -0.486800
      2 C02         -0.6490    -0.5580    -1.1890 cx         1 AF5       0.142500
      3 C03          0.2410    -1.2620    -2.2150 cx         1 AF5      -0.146900
      4 C04         -0.3540     0.1120    -2.5330 cx         1 AF5      -0.146900
      5 C05          1.3430     0.0000     0.0000 cc         1 AF5       0.018000
      6 C06          2.0600     0.0000     1.1790 cd         1 AF5      -0.213400
      7 C07          3.5290    -0.0010     1.1730 c          1 AF5       0.886800
      8 O08          4.2070    -0.0020     2.3380 o          1 AF5      -0.809300
      9 O09          4.1330    -0.0020     0.1180 o          1 AF5      -0.809300
     10 C10          1.3090     0.0000     2.4460 c          1 AF5       0.559900
     11 O11          1.8660    -0.1710     3.5170 o          1 AF5      -0.466100
     12 C12         -0.1400     0.2410     2.3610 ca         1 AF5      -0.180600
     13 C13         -0.7370     0.3810     1.0910 ca         1 AF5       0.233600
     14 C14         -2.0080     0.9810     1.0140 ca         1 AF5      -0.161800
     15 C15         -2.4500     1.5760    -0.2390 ce         1 AF5      -0.032200
     16 C16         -3.5720     2.0160    -0.6780 c2         1 AF5      -0.230200
     17 C17         -4.8950     2.1270    -0.0240 c3         1 AF5      -0.075200
     18 C18         -5.0580     1.2430     1.2010 c3         1 AF5       0.231500
     19 N19         -4.0490     1.5440     2.1970 nh         1 AF5      -0.679000
     20 C20         -4.3740     2.8440     2.7790 c3         1 AF5       0.219800
     21 C21         -5.9240     2.8300     2.8580 c3         1 AF5      -0.107400
     22 C22         -6.3660     1.6730     1.9300 c3         1 AF5       0.069500
     23 N23         -7.3840     2.1320     0.9810 nz         1 AF5      -0.804600
     24 C24         -2.7870     1.0820     2.1770 ca         1 AF5       0.144600
     25 C25         -2.2260     0.7160     3.4170 ca         1 AF5       0.038900
     26 F26         -2.9860     0.7680     4.5310 f          1 AF5      -0.152900
     27 C27         -0.9240     0.3090     3.5150 ca         1 AF5      -0.047000
     28 H021        -1.6470    -0.9680    -1.0960 h1         1 AF5       0.091700
     29 H031         1.3000    -1.2710    -1.9880 hc         1 AF5       0.088450
     30 H032        -0.2130    -2.0990    -2.7320 hc         1 AF5       0.088450
     31 H041        -1.1710     0.1130    -3.2440 hc         1 AF5       0.088450
     32 H042         0.3420     0.9410    -2.5000 hc         1 AF5       0.088450
     33 H051         1.8750     0.0030    -0.9440 h4         1 AF5       0.187000
     34 H151        -1.6500     1.6690    -0.9640 ha         1 AF5       0.145000
     35 H161        -3.5480     2.3660    -1.7030 ha         1 AF5       0.127000
     36 H172        -5.6570     1.8580    -0.7450 hc         1 AF5       0.023700
     37 H171        -5.0440     3.1580     0.2750 hc         1 AF5       0.023700
     38 H181        -5.0700     0.1910     0.9440 h1         1 AF5       0.103700
     39 H201        -4.0350     3.6450     2.1330 h1         1 AF5       0.074700
     40 H202        -3.9450     2.9350     3.7690 h1         1 AF5       0.074700
     41 H211        -6.3260     3.7700     2.5020 hc         1 AF5       0.069700
     42 H212        -6.2450     2.6380     3.8750 hc         1 AF5       0.069700
     43 H221        -6.7460     0.8500     2.5220 hx         1 AF5       0.124700
     44 H231        -7.4540     1.4800     0.2250 hn         1 AF5       0.452133
     45 H232        -7.1260     3.0310     0.6240 hn         1 AF5       0.452133
     46 H271        -0.5740     0.1760     4.5310 ha         1 AF5       0.177000
     47 H233        -8.2710     2.1840     1.4420 hn         1 AF5       0.452133
@<TRIPOS>BOND
     1    16    17 1
     2    16    15 2
     3    17    18 1
     4     2     4 1
     5     2     1 1
     6     2     3 1
     7     4     3 1
     8    15    14 1
     9    21    20 1
    10    21    22 1
    11     1     5 1
    12     1    13 1
    13    18    19 1
    14    18    22 1
    15    14    13 ar
    16    14    24 ar
    17    20    19 1
    18     5     6 2
    19    19    24 1
    20    13    12 ar
    21     9     7 1
    22    24    25 ar
    23    23    22 1
    24     6     7 1
    25     6    10 1
    26    12    10 1
    27    12    27 ar
    28     7     8 1
    29    25    27 ar
    30    25    26 1
    31    10    11 2
    32     2    28 1
    33     3    29 1
    34     3    30 1
    35     4    31 1
    36     4    32 1
    37     5    33 1
    38    15    34 1
    39    16    35 1
    40    17    36 1
    41    17    37 1
    42    18    38 1
    43    20    39 1
    44    20    40 1
    45    21    41 1
    46    21    42 1
    47    22    43 1
    48    23    44 1
    49    23    45 1
    50    27    46 1
    51    47    23 1
@<TRIPOS>SUBSTRUCTURE
     1 AF5         1 TEMP              0 ****  ****    0 ROOT
