@<TRIPOS>MOLECULE
AF5
   47    51     1     0     0
SMALL
bcc


@<TRIPOS>ATOM
      1 N01          0.0000     0.0000     0.0000 na         1 AF5       0.000200
      2 C02         -0.6490    -0.5580    -1.1890 cx         1 AF5       0.011500
      3 C03          0.2410    -1.2620    -2.2150 cx         1 AF5      -0.085900
      4 C04         -0.3540     0.1120    -2.5330 cx         1 AF5      -0.085900
      5 C05          1.3430     0.0000     0.0000 cc         1 AF5      -0.167000
      6 C06          2.0600     0.0000     1.1790 cd         1 AF5      -0.177400
      7 C07          3.5290    -0.0010     1.1730 c          1 AF5       0.969800
      8 O08          4.2070    -0.0020     2.3380 o          1 AF5      -0.854800
      9 O09          4.1330    -0.0020     0.1180 o          1 AF5      -0.854800
     10 C10          1.3090     0.0000     2.4460 c          1 AF5       0.596900
     11 O11          1.8660    -0.1710     3.5170 o          1 AF5      -0.488100
     12 C12         -0.1400     0.2410     2.3610 ca         1 AF5      -0.186600
     13 C13         -0.7370     0.3810     1.0910 ca         1 AF5       0.070600
     14 C14         -2.0080     0.9810     1.0140 ca         1 AF5      -0.156800
     15 C15         -2.4500     1.5760    -0.2390 ce         1 AF5      -0.008200
     16 C16         -3.5720     2.0160    -0.6780 c2         1 AF5      -0.225200
     17 C17         -4.8950     2.1270    -0.0240 c3         1 AF5      -0.011200
     18 C18         -5.0580     1.2430     1.2010 c3         1 AF5       0.160500
     19 N19         -4.0490     1.5440     2.1970 nh         1 AF5      -0.351000
     20 C20         -4.3740     2.8440     2.7790 c3         1 AF5       0.163800
     21 C21         -5.9240     2.8300     2.8580 c3         1 AF5      -0.027400
     22 C22         -6.3660     1.6730     1.9300 c3         1 AF5      -0.110500
     23 N23         -7.3840     2.1320     0.9810 nz         1 AF5       0.071400
     24 C24         -2.7870     1.0820     2.1770 ca         1 AF5       0.032600
     25 C25         -2.2260     0.7160     3.4170 ca         1 AF5      -0.002100
     26 F26         -2.9860     0.7680     4.5310 f          1 AF5      -0.136900
     27 C27         -0.9240     0.3090     3.5150 ca         1 AF5       0.002000
     28 H021        -1.6470    -0.9680    -1.0960 h1         1 AF5       0.067700
     29 H031         1.3000    -1.2710    -1.9880 hc         1 AF5       0.060450
     30 H032        -0.2130    -2.0990    -2.7320 hc         1 AF5       0.060450
     31 H041        -1.1710     0.1130    -3.2440 hc         1 AF5       0.060450
     32 H042         0.3420     0.9410    -2.5000 hc         1 AF5       0.060450
     33 H051         1.8750     0.0030    -0.9440 h4         1 AF5       0.170000
     34 H151        -1.6500     1.6690    -0.9640 ha         1 AF5       0.115000
     35 H161        -3.5480     2.3660    -1.7030 ha         1 AF5       0.108000
     36 H172        -5.6570     1.8580    -0.7450 hc         1 AF5       0.000200
     37 H171        -5.0440     3.1580     0.2750 hc         1 AF5       0.000200
     38 H181        -5.0700     0.1910     0.9440 h1         1 AF5       0.071700
     39 H201        -4.0350     3.6450     2.1330 h1         1 AF5       0.044200
     40 H202        -3.9450     2.9350     3.7690 h1         1 AF5       0.044200
     41 H211        -6.3260     3.7700     2.5020 hc         1 AF5       0.035700
     42 H212        -6.2450     2.6380     3.8750 hc         1 AF5       0.035700
     43 H221        -6.7460     0.8500     2.5220 hx         1 AF5       0.100700
     44 H231        -7.4540     1.4800     0.2250 hn         1 AF5       0.224800
     45 H232        -7.1260     3.0310     0.6240 hn         1 AF5       0.224800
     46 H271        -0.5740     0.1760     4.5310 ha         1 AF5       0.140000
     47 H233        -8.2710     2.1840     1.4420 hn         1 AF5       0.224800
@<TRIPOS>BOND
     1     1     2 1   
     2     1     5 1   
     3     1    13 1   
     4     2     3 1   
     5     2     4 1   
     6     2    28 1   
     7     3     4 1   
     8     3    29 1   
     9     3    30 1   
    10     4    31 1   
    11     4    32 1   
    12     5     6 2   
    13     5    33 1   
    14     6     7 1   
    15     6    10 1   
    16     7     8 1   
    17     7     9 1   
    18    10    11 2   
    19    10    12 1   
    20    12    13 ar  
    21    12    27 ar  
    22    13    14 ar  
    23    14    15 1   
    24    14    24 ar  
    25    15    16 2   
    26    15    34 1   
    27    16    17 1   
    28    16    35 1   
    29    17    18 1   
    30    17    36 1   
    31    17    37 1   
    32    18    19 1   
    33    18    22 1   
    34    18    38 1   
    35    19    20 1   
    36    19    24 1   
    37    20    21 1   
    38    20    39 1   
    39    20    40 1   
    40    21    22 1   
    41    21    41 1   
    42    21    42 1   
    43    22    23 1   
    44    22    43 1   
    45    23    44 1   
    46    23    45 1   
    47    23    47 1   
    48    24    25 ar  
    49    25    26 1   
    50    25    27 ar  
    51    27    46 1   
@<TRIPOS>SUBSTRUCTURE
     1 AF5         1 TEMP              0 ****  ****    0 ROOT
