@<TRIPOS>MOLECULE
AF8
   72    74     1     0     0
SMALL
bcc


@<TRIPOS>ATOM
      1 C21         0.1230    0.0790    0.5730 c         1 AF8      0.583700
      2 O22         0.2880    1.1580    0.0180 o         1 AF8     -0.443100
      3 C22         0.2770   -0.2440    1.9930 ca        1 AF8     -0.171600
      4 C27         1.0430    0.6520    2.7510 ca        1 AF8     -0.079000
      5 C26         1.2230    0.4010    4.1250 ca        1 AF8      0.144100
      6 C25         0.6390   -0.7220    4.7290 ca        1 AF8     -0.140000
      7 C24        -0.1290   -1.5930    3.9570 ca        1 AF8     -0.075000
      8 C23        -0.3140   -1.3660    2.5950 ca        1 AF8     -0.139000
      9 O27         1.9890    1.3130    4.7970 oh        1 AF8     -0.469100
     10 N11        -2.3090    1.1170   -4.3210 n3        1 AF8     -0.903200
     11 C12        -2.5450    0.9690   -5.7600 c3        1 AF8      0.121800
     12 C13        -1.3510    1.3290   -6.6630 c3        1 AF8     -0.085700
     13 C14        -0.6520    0.0800   -7.1580 c3        1 AF8     -0.095100
     14 C15        -1.8410    2.1490   -7.8400 c3        1 AF8     -0.095100
     15 C16        -1.2420    0.2450   -3.8250 c3        1 AF8      0.098800
     16 C17        -1.3760   -0.0600   -2.3240 c3        1 AF8      0.096100
     17 O18        -2.5470   -0.7930   -2.0310 oh        1 AF8     -0.594800
     18 C19        -0.1180   -0.8010   -1.8000 c3        1 AF8      0.099500
     19 N20        -0.2680   -1.0790   -0.3290 n4        1 AF8     -0.679800
     20 C32         0.1610   -2.0980   -2.5750 c3        1 AF8     -0.052100
     21 C33         0.9930   -4.0330   -1.2210 ca        1 AF8     -0.131000
     22 C34         2.0360   -4.7960   -0.6980 ca        1 AF8     -0.111500
     23 C35         3.3610   -4.4200   -0.9250 ca        1 AF8     -0.091000
     24 C36         3.6420   -3.2790   -1.6790 ca        1 AF8     -0.111500
     25 C37         2.6020   -2.5150   -2.2050 ca        1 AF8     -0.131000
     26 C38         1.2710   -2.8860   -1.9760 ca        1 AF8     -0.170300
     27 C1         -6.0640    7.5660   -8.4100 cc        1 AF8      0.307200
     28 N1         -7.0080    7.3710   -7.4700 nd        1 AF8     -0.264300
     29 O1         -6.5220    6.6510   -6.4940 os        1 AF8     -0.086100
     30 S1         -2.9780    4.9500   -5.9110 ss        1 AF8      0.421200
     31 C2         -4.4860    5.5470   -5.7950 cd        1 AF8     -0.057600
     32 C3         -5.1580    6.3210   -6.7700 cd        1 AF8      0.218200
     33 C4         -4.8380    6.8970   -7.9960 cc        1 AF8     -0.237600
     34 C5         -2.9460    4.2100   -4.4060 cd        1 AF8     -0.783600
     35 C6         -4.2320    4.4440   -3.7720 cc        1 AF8     -0.003000
     36 C7         -5.0900    5.1900   -4.5470 cc        1 AF8     -0.141000
     37 S8         -1.8650    3.4600   -3.6560 s4        1 AF8      1.742300
     38 O9         -0.6120    3.4050   -4.1770 o         1 AF8     -0.451900
     39 O10        -2.1010    3.0870   -2.3690 o         1 AF8     -0.451900
     40 H27         1.5020    1.5460    2.2960 ha        1 AF8      0.185000
     41 H25         0.7810   -0.9130    5.8060 ha        1 AF8      0.173000
     42 H24        -0.5980   -2.4710    4.4330 ha        1 AF8      0.171000
     43 H23        -0.9450   -2.0670    2.0310 ha        1 AF8      0.128000
     44 HO27        2.0400    1.0530    5.7320 ho        1 AF8      0.450000
     45 H12        -3.4170    1.6440   -6.0020 h1        1 AF8      0.067200
     46 H12A       -2.8720   -0.0850   -6.0030 h1        1 AF8      0.067200
     47 H13        -0.6010    1.9480   -6.0910 hc        1 AF8      0.064700
     48 H14        -1.3500   -0.5580   -7.7530 hc        1 AF8      0.047700
     49 H14A        0.2090    0.3600   -7.8130 hc        1 AF8      0.047700
     50 H14B       -0.2610   -0.5190   -6.3010 hc        1 AF8      0.047700
     51 H15        -2.2830    3.1160   -7.4870 hc        1 AF8      0.047700
     52 H15A       -2.6180    1.5930   -8.4180 hc        1 AF8      0.047700
     53 H15B       -0.9900    2.3800   -8.5260 hc        1 AF8      0.047700
     54 H16        -1.2340   -0.7330   -4.3910 h1        1 AF8      0.084700
     55 H16A       -0.2590    0.7640   -4.0170 h1        1 AF8      0.084700
     56 H17        -1.5020    0.9030   -1.7340 h1        1 AF8      0.129700
     57 HO18       -2.6130   -1.5370   -2.6480 ho        1 AF8      0.424000
     58 H19         0.7730   -0.1110   -1.9200 hx        1 AF8      0.127700
     59 HN20       -1.2530   -1.3160   -0.1420 hn        1 AF8      0.473800
     60 H32         0.4390   -1.8050   -3.6250 hc        1 AF8      0.079700
     61 H32A       -0.7730   -2.7200   -2.6290 hc        1 AF8      0.079700
     62 H33        -0.0470   -4.3620   -1.0730 ha        1 AF8      0.134500
     63 H34         1.8140   -5.7070   -0.1190 ha        1 AF8      0.161000
     64 H35         4.1850   -5.0310   -0.5200 ha        1 AF8      0.165000
     65 H36         4.6880   -2.9890   -1.8700 ha        1 AF8      0.161000
     66 H37         2.8300   -1.6290   -2.8170 ha        1 AF8      0.134500
     67 H4         -3.9010    6.8830   -8.5490 ha        1 AF8      0.194000
     68 H6         -4.4670    4.0660   -2.7670 ha        1 AF8      0.200000
     69 H7         -6.1090    5.4940   -4.2710 ha        1 AF8      0.221000
     70 H111       -3.1640    0.8820   -3.8340 hn        1 AF8      0.396800
     71 H202        0.3180   -1.8940   -0.0820 hn        1 AF8      0.473800
     72 H1         -6.2320    8.1440   -9.3250 h4        1 AF8      0.091100
@<TRIPOS>BOND
     1    1    2 2   
     2    1    3 1   
     3    1   19 1   
     4    3    4 ar  
     5    3    8 ar  
     6    4    5 ar  
     7    4   40 1   
     8    5    6 ar  
     9    5    9 1   
    10    6    7 ar  
    11    6   41 1   
    12    7    8 ar  
    13    7   42 1   
    14    8   43 1   
    15    9   44 1   
    16   10   11 1   
    17   10   15 1   
    18   10   70 1   
    19   11   12 1   
    20   11   45 1   
    21   11   46 1   
    22   12   13 1   
    23   12   14 1   
    24   12   47 1   
    25   13   48 1   
    26   13   49 1   
    27   13   50 1   
    28   14   51 1   
    29   14   52 1   
    30   14   53 1   
    31   15   16 1   
    32   15   54 1   
    33   15   55 1   
    34   16   17 1   
    35   16   18 1   
    36   16   56 1   
    37   17   57 1   
    38   18   19 1   
    39   18   20 1   
    40   18   58 1   
    41   19   59 1   
    42   19   71 1   
    43   20   26 1   
    44   20   60 1   
    45   20   61 1   
    46   21   22 ar  
    47   21   26 ar  
    48   21   62 1   
    49   22   23 ar  
    50   22   63 1   
    51   23   24 ar  
    52   23   64 1   
    53   24   25 ar  
    54   24   65 1   
    55   25   26 ar  
    56   25   66 1   
    57   27   28 2   
    58   27   33 1   
    59   27   72 1   
    60   28   29 1   
    61   29   32 1   
    62   30   31 1   
    63   30   34 1   
    64   31   32 1   
    65   31   36 2   
    66   32   33 2   
    67   33   67 1   
    68   34   35 2   
    69   34   37 1   
    70   35   36 1   
    71   35   68 1   
    72   36   69 1   
    73   37   38 1   
    74   37   39 1   
@<TRIPOS>SUBSTRUCTURE
     1 AF8         1 TEMP              0 ****  ****    0 ROOT
