@<TRIPOS>MOLECULE
molecule
   44    45     1     0     0
SMALL
bcc


@<TRIPOS>ATOM
      1 S1           0.0000     0.0000     0.0000 sy         1 AF9       1.243200
      2 O3          -2.7820    -0.8360    -0.6110 os         1 AF9      -0.372900
      3 O4           1.4210     0.0000     0.0000 o          1 AF9      -0.520300
      4 O5          -0.7770     0.0000     1.1900 o          1 AF9      -0.520300
      5 N6          -0.4690     1.3320    -0.8650 nz         1 AF9      -0.806500
      6 N7           4.1440    -4.2610    -0.9220 nb         1 AF9      -0.849000
      7 N8           4.3810    -3.0430    -2.8730 nb         1 AF9      -0.817000
      8 N9           2.0980    -5.2650    -0.3150 nv         1 AF9      -0.988500
      9 N10          6.2100    -3.3000    -1.4420 nv         1 AF9      -0.983500
     10 C11         -1.7070    -4.8650    -3.1480 c3         1 AF9      -0.047400
     11 C12         -1.2830    -3.6510    -2.3620 ca         1 AF9       0.028700
     12 C13          0.0650    -3.3910    -2.1640 ca         1 AF9       0.096100
     13 C14         -2.2350    -2.7960    -1.8440 ca         1 AF9      -0.192000
     14 C15         -0.4960    -1.4210    -0.9180 ca         1 AF9      -0.335500
     15 C16         -2.5740    -5.7660    -2.2660 c3         1 AF9      -0.085600
     16 C17         -2.5120    -4.4230    -4.3720 c3         1 AF9      -0.085600
     17 C18         -1.8440    -1.6790    -1.1200 ca         1 AF9       0.188100
     18 C19          0.4560    -2.2730    -1.4410 ca         1 AF9      -0.079000
     19 C20          2.3080    -3.9980    -2.3660 ca         1 AF9      -0.326500
     20 C21         -4.1510    -1.1630    -0.8590 c3         1 AF9       0.130700
     21 C22          2.8670    -4.5110    -1.1890 ca         1 AF9       0.769200
     22 C23          3.1150    -3.2490    -3.2060 ca         1 AF9       0.530200
     23 C24          4.8810    -3.5400    -1.7530 ca         1 AF9       0.995900
     24 H1          -0.4860     1.1070    -1.8400 hn         1 AF9       0.492467
     25 H2           0.1780     2.0780    -0.7060 hn         1 AF9       0.492467
     26 H3           1.1990    -5.5990    -0.6010 hn         1 AF9       0.452800
     27 H4           2.4650    -5.5210     0.5800 hn         1 AF9       0.452800
     28 H5           6.5080    -3.3000    -0.4870 hn         1 AF9       0.459800
     29 H6           6.8750    -3.1450    -2.1740 hn         1 AF9       0.459800
     30 H7          -0.8300    -5.4110    -3.4700 hc         1 AF9       0.090700
     31 H8          -3.2880    -3.0130    -1.9770 ha         1 AF9       0.169000
     32 H9          -2.5550    -6.7780    -2.6540 hc         1 AF9       0.045033
     33 H10         -2.1880    -5.7610    -1.2540 hc         1 AF9       0.045033
     34 H11         -3.5930    -5.3990    -2.2650 hc         1 AF9       0.045033
     35 H12         -3.5270    -4.1890    -4.0720 hc         1 AF9       0.045033
     36 H13         -2.0530    -3.5440    -4.8080 hc         1 AF9       0.045033
     37 H14         -2.5270    -5.2230    -5.1020 hc         1 AF9       0.045033
     38 H15          1.5080    -2.0380    -1.3360 ha         1 AF9       0.181000
     39 H16         -4.7890    -0.4130    -0.4070 h1         1 AF9       0.062367
     40 H17         -4.3740    -2.1330    -0.4300 h1         1 AF9       0.062367
     41 H18         -4.3280    -1.1920    -1.9270 h1         1 AF9       0.062367
     42 H19          2.7160    -2.8380    -4.1260 h4         1 AF9       0.036100
     43 H63         -1.3800     1.6200    -0.5660 hn         1 AF9       0.492467
     44 O2           1.0030    -4.2300    -2.6770 os         1 AF9      -0.207200
@<TRIPOS>BOND
     1     9    23 1
     2    23     6 ar
     3    23     7 ar
     4     6    21 ar
     5     7    22 ar
     6    21     8 1
     7    21    19 ar
     8    22    19 ar
     9    19    44 1
    10    44    12 1
    11    12    18 ar
    12    12    11 ar
    13    10    15 1
    14    10    11 1
    15    10    16 1
    16    18    14 ar
    17    11    13 ar
    18    14    17 ar
    19    14     1 1
    20     5     1 1
    21    13    17 ar
    22     4     1 2
    23    17     2 1
    24     1     3 2
    25     2    20 1
    26     5    24 1
    27     5    25 1
    28     8    26 1
    29     8    27 1
    30     9    28 1
    31     9    29 1
    32    10    30 1
    33    13    31 1
    34    15    32 1
    35    15    33 1
    36    15    34 1
    37    16    35 1
    38    16    36 1
    39    16    37 1
    40    18    38 1
    41    20    39 1
    42    20    40 1
    43    20    41 1
    44    22    42 1
    45    43     5 1
@<TRIPOS>SUBSTRUCTURE
     1 AF9         1 TEMP              0 ****  ****    0 ROOT
