@<TRIPOS>MOLECULE
AF9
   44    45     1     0     0
SMALL
bcc


@<TRIPOS>ATOM
      1 S1           0.0000     0.0000     0.0000 sy         1 AF9       0.940200
      2 O3          -2.7820    -0.8360    -0.6110 os         1 AF9      -0.353900
      3 O4           1.4210     0.0000     0.0000 o          1 AF9      -0.495300
      4 O5          -0.7770     0.0000     1.1900 o          1 AF9      -0.495300
      5 N6          -0.4690     1.3320    -0.8650 nz         1 AF9      -0.136500
      6 N7           4.1440    -4.2610    -0.9220 nb         1 AF9      -0.747000
      7 N8           4.3810    -3.0430    -2.8730 nb         1 AF9      -0.727000
      8 N9           2.0980    -5.2650    -0.3150 nv         1 AF9      -0.496500
      9 N10          6.2100    -3.3000    -1.4420 nv         1 AF9      -0.485500
     10 C11         -1.7070    -4.8650    -3.1480 c3         1 AF9      -0.018400
     11 C12         -1.2830    -3.6510    -2.3620 ca         1 AF9       0.022700
     12 C13          0.0650    -3.3910    -2.1640 ca         1 AF9       0.095100
     13 C14         -2.2350    -2.7960    -1.8440 ca         1 AF9      -0.182000
     14 C15         -0.4960    -1.4210    -0.9180 ca         1 AF9      -0.218500
     15 C16         -2.5740    -5.7660    -2.2660 c3         1 AF9       0.010900
     16 C17         -2.5120    -4.4230    -4.3720 c3         1 AF9       0.010900
     17 C18         -1.8440    -1.6790    -1.1200 ca         1 AF9       0.203100
     18 C19          0.4560    -2.2730    -1.4410 ca         1 AF9      -0.053000
     19 C20          2.3080    -3.9980    -2.3660 ca         1 AF9      -0.341500
     20 C21         -4.1510    -1.1630    -0.8590 c3         1 AF9       0.261700
     21 C22          2.8670    -4.5110    -1.1890 ca         1 AF9       0.570200
     22 C23          3.1150    -3.2490    -3.2060 ca         1 AF9       0.526200
     23 C24          4.8810    -3.5400    -1.7530 ca         1 AF9       0.758900
     24 H1          -0.4860     1.1070    -1.8400 hn         1 AF9       0.315467
     25 H2           0.1780     2.0780    -0.7060 hn         1 AF9       0.315467
     26 H3           1.1990    -5.5990    -0.6010 hn         1 AF9       0.279300
     27 H4           2.4650    -5.5210     0.5800 hn         1 AF9       0.279300
     28 H5           6.5080    -3.3000    -0.4870 hn         1 AF9       0.281300
     29 H6           6.8750    -3.1450    -2.1740 hn         1 AF9       0.281300
     30 H7          -0.8300    -5.4110    -3.4700 hc         1 AF9       0.057700
     31 H8          -3.2880    -3.0130    -1.9770 ha         1 AF9       0.150000
     32 H9          -2.5550    -6.7780    -2.6540 hc         1 AF9       0.010867
     33 H10         -2.1880    -5.7610    -1.2540 hc         1 AF9       0.010867
     34 H11         -3.5930    -5.3990    -2.2650 hc         1 AF9       0.010867
     35 H12         -3.5270    -4.1890    -4.0720 hc         1 AF9       0.010867
     36 H13         -2.0530    -3.5440    -4.8080 hc         1 AF9       0.010867
     37 H14         -2.5270    -5.2230    -5.1020 hc         1 AF9       0.010867
     38 H15          1.5080    -2.0380    -1.3360 ha         1 AF9       0.157000
     39 H16         -4.7890    -0.4130    -0.4070 h1         1 AF9       0.013033
     40 H17         -4.3740    -2.1330    -0.4300 h1         1 AF9       0.013033
     41 H18         -4.3280    -1.1920    -1.9270 h1         1 AF9       0.013033
     42 H19          2.7160    -2.8380    -4.1260 h4         1 AF9      -0.015900
     43 H63         -1.3800     1.6200    -0.5660 hn         1 AF9       0.315467
     44 O2           1.0030    -4.2300    -2.6770 os         1 AF9      -0.167200
@<TRIPOS>BOND
     1     1     3 2   
     2     1     4 2   
     3     1     5 1   
     4     1    14 1   
     5     2    17 1   
     6     2    20 1   
     7     5    24 1   
     8     5    25 1   
     9     5    43 1   
    10     6    21 ar  
    11     6    23 ar  
    12     7    22 ar  
    13     7    23 ar  
    14     8    21 1   
    15     8    26 1   
    16     8    27 1   
    17     9    23 1   
    18     9    28 1   
    19     9    29 1   
    20    10    11 1   
    21    10    15 1   
    22    10    16 1   
    23    10    30 1   
    24    11    12 ar  
    25    11    13 ar  
    26    12    18 ar  
    27    12    44 1   
    28    13    17 ar  
    29    13    31 1   
    30    14    17 ar  
    31    14    18 ar  
    32    15    32 1   
    33    15    33 1   
    34    15    34 1   
    35    16    35 1   
    36    16    36 1   
    37    16    37 1   
    38    18    38 1   
    39    19    21 ar  
    40    19    22 ar  
    41    19    44 1   
    42    20    39 1   
    43    20    40 1   
    44    20    41 1   
    45    22    42 1   
@<TRIPOS>SUBSTRUCTURE
     1 AF9         1 TEMP              0 ****  ****    0 ROOT
