@<TRIPOS>MOLECULE
AFB
   44    45     1     0     0
SMALL
bcc


@<TRIPOS>ATOM
      1 OC7        -0.2000   -0.4670    1.9670 oh        1 AFB     -0.603800
      2 C7          0.8180   -0.6460    0.9900 c3        1 AFB      0.139100
      3 C8          2.1320   -0.1880    1.6270 c3        1 AFB     -0.074400
      4 C6          0.9850   -2.1140    0.5920 c3        1 AFB     -0.107400
      5 C5          2.2630   -2.6260    1.2520 c3        1 AFB     -0.093700
      6 C9          3.0760   -1.3930    1.6740 c3        1 AFB     -0.019500
      7 C10         3.7360   -1.5490    2.9970 c2        1 AFB     -0.174200
      8 C11         3.1870   -1.7840    4.1920 c2        1 AFB     -0.146200
      9 C12         1.7520   -1.9150    4.5400 c3        1 AFB     -0.061200
     10 C13         1.2880   -3.3370    4.8010 c3        1 AFB     -0.078400
     11 C14         2.1630   -4.1430    5.7400 c3        1 AFB     -0.097400
     12 C15         2.5030   -5.5220    5.1750 c3        1 AFB      0.144100
     13 C16         3.0860   -6.4300    6.2420 c3        1 AFB     -0.101100
     14 O16         3.5470   -5.3620    4.1870 os        1 AFB     -0.432900
     15 C1          3.2050   -5.3410    2.8650 c         1 AFB      0.649300
     16 OC1         2.0570   -5.6630    2.5350 o         1 AFB     -0.567000
     17 C2          4.3320   -4.9410    2.0110 ce        1 AFB     -0.200200
     18 C3          4.2490   -4.1610    0.9300 c2        1 AFB     -0.109200
     19 C4          3.0290   -3.5540    0.3020 c3        1 AFB      0.173300
     20 OC4         2.1760   -4.5530   -0.2310 oh        1 AFB     -0.599800
     21 HO7        -1.0140   -0.8250    1.5940 ho        1 AFB      0.400000
     22 HC7         0.5640   -0.0190    0.0910 h1        1 AFB      0.035700
     23 H81         1.9390    0.2160    2.6540 hc        1 AFB      0.062200
     24 H82         2.5840    0.6340    1.0180 hc        1 AFB      0.062200
     25 H61         1.0560   -2.2060   -0.5220 hc        1 AFB      0.058700
     26 H62         0.1080   -2.7230    0.9240 hc        1 AFB      0.058700
     27 H5          1.9870   -3.2180    2.1680 hc        1 AFB      0.072700
     28 H9          3.8850   -1.2290    0.9050 hc        1 AFB      0.045700
     29 H101        4.8360   -1.4490    2.9460 ha        1 AFB      0.113000
     30 H111        3.8660   -1.8700    5.0610 ha        1 AFB      0.114000
     31 H121        1.1090   -1.4880    3.7190 hc        1 AFB      0.059700
     32 H122        1.5650   -1.2980    5.4620 hc        1 AFB      0.059700
     33 H131        0.2490   -3.2820    5.2260 hc        1 AFB      0.047200
     34 H132        1.1980   -3.8810    3.8220 hc        1 AFB      0.047200
     35 H141        1.6320   -4.2940    6.7170 hc        1 AFB      0.053700
     36 H142        3.1200   -3.6040    5.9630 hc        1 AFB      0.053700
     37 H15         1.5980   -5.9960    4.7050 h1        1 AFB      0.080700
     38 H161        2.3160   -6.6160    7.0270 hc        1 AFB      0.047367
     39 H162        3.9810   -5.9570    6.7110 hc        1 AFB      0.047367
     40 H163        3.3940   -7.4040    5.7920 hc        1 AFB      0.047367
     41 H21         5.3080   -5.3170    2.3650 ha        1 AFB      0.156000
     42 H31         5.1850   -3.9190    0.3920 ha        1 AFB      0.134000
     43 HC4         3.3460   -2.9690   -0.6140 h1        1 AFB      0.075700
     44 HO4         1.8120   -5.0620    0.5080 ho        1 AFB      0.428000
@<TRIPOS>BOND
     1    1    2 1   
     2    1   21 1   
     3    2    3 1   
     4    2    4 1   
     5    2   22 1   
     6    3    6 1   
     7    3   23 1   
     8    3   24 1   
     9    4    5 1   
    10    4   25 1   
    11    4   26 1   
    12    5    6 1   
    13    5   19 1   
    14    5   27 1   
    15    6    7 1   
    16    6   28 1   
    17    7    8 2   
    18    7   29 1   
    19    8    9 1   
    20    8   30 1   
    21    9   10 1   
    22    9   31 1   
    23    9   32 1   
    24   10   11 1   
    25   10   33 1   
    26   10   34 1   
    27   11   12 1   
    28   11   35 1   
    29   11   36 1   
    30   12   13 1   
    31   12   14 1   
    32   12   37 1   
    33   13   38 1   
    34   13   39 1   
    35   13   40 1   
    36   14   15 1   
    37   15   16 2   
    38   15   17 1   
    39   17   18 2   
    40   17   41 1   
    41   18   19 1   
    42   18   42 1   
    43   19   20 1   
    44   19   43 1   
    45   20   44 1   
@<TRIPOS>SUBSTRUCTURE
     1 AFB         1 TEMP              0 ****  ****    0 ROOT
