@<TRIPOS>MOLECULE
molecule
   44    45     1     0     0
SMALL
bcc


@<TRIPOS>ATOM
      1 OC7          0.0000     0.0000     0.0000 oh         1 AFB      -0.597800
      2 C7           1.4230     0.0000     0.0000 c3         1 AFB       0.141100
      3 C8           1.9640     0.0000     1.4260 c3         1 AFB      -0.087400
      4 C6           1.9670    -1.2830    -0.6070 c3         1 AFB      -0.087400
      5 C5           1.8250    -2.2990     0.5370 c3         1 AFB      -0.056700
      6 C9           2.1970    -1.4810     1.8020 c3         1 AFB      -0.022500
      7 C10          1.3930    -1.8700     3.0190 c2         1 AFB      -0.169200
      8 C11          1.9310    -2.2140     4.1990 c2         1 AFB      -0.171200
      9 C12          1.1230    -2.5700     5.4170 c3         1 AFB      -0.037200
     10 C13          1.2920    -4.0300     5.8560 c3         1 AFB      -0.075400
     11 C14          2.6600    -4.3430     6.4920 c3         1 AFB      -0.093400
     12 C15          3.3710    -5.5360     5.8340 c3         1 AFB       0.138100
     13 C16          4.6340    -5.9110     6.5990 c3         1 AFB      -0.102100
     14 O16          3.7790    -5.1310     4.5100 os         1 AFB      -0.426900
     15 C1           3.1530    -5.6880     3.4420 c          1 AFB       0.651300
     16 OC1          2.3800    -6.6300     3.4310 o          1 AFB      -0.524000
     17 C2           3.4910    -4.8450     2.2800 ce         1 AFB      -0.224200
     18 C3           2.5180    -4.5610     1.4050 c2         1 AFB      -0.120200
     19 C4           2.6830    -3.5580     0.3000 c3         1 AFB       0.187300
     20 OC4          2.2740    -4.1670    -0.9250 oh         1 AFB      -0.595800
     21 HO7         -0.3140     0.7190    -0.5220 ho         1 AFB       0.401000
     22 HC7          1.8030     0.8580    -0.5420 h1         1 AFB       0.031700
     23 H81          2.8990     0.5450     1.4680 hc         1 AFB       0.056700
     24 H82          1.2380     0.4430     2.0980 hc         1 AFB       0.056700
     25 H61          1.3710    -1.5830    -1.4590 hc         1 AFB       0.058200
     26 H62          3.0080    -1.1620    -0.8820 hc         1 AFB       0.058200
     27 H5           0.7850    -2.5930     0.6100 hc         1 AFB       0.081700
     28 H9           3.2500    -1.6250     2.0130 hc         1 AFB       0.045700
     29 H101         0.3130    -1.8470     2.9330 ha         1 AFB       0.127000
     30 H111         3.0100    -2.2360     4.2880 ha         1 AFB       0.121000
     31 H121         0.0760    -2.3920     5.2020 hc         1 AFB       0.045200
     32 H122         1.4240    -1.9260     6.2340 hc         1 AFB       0.045200
     33 H131         0.5170    -4.2650     6.5750 hc         1 AFB       0.045700
     34 H132         1.1630    -4.6670     4.9890 hc         1 AFB       0.045700
     35 H141         2.5130    -4.5620     7.5430 hc         1 AFB       0.052200
     36 H142         3.2940    -3.4690     6.4040 hc         1 AFB       0.052200
     37 H15          2.7020    -6.3860     5.7760 h1         1 AFB       0.071700
     38 H161         4.6300    -5.4210     7.5650 hc         1 AFB       0.047700
     39 H162         5.5040    -5.5940     6.0370 hc         1 AFB       0.047700
     40 H163         4.6660    -6.9850     6.7390 hc         1 AFB       0.047700
     41 H21          4.4500    -4.3460     2.2180 ha         1 AFB       0.149000
     42 H31          1.5280    -4.9630     1.5820 ha         1 AFB       0.152000
     43 HC4          3.7260    -3.2720     0.2280 h1         1 AFB       0.031700
     44 HO4          3.0000    -4.6390    -1.2980 ho         1 AFB       0.405000
@<TRIPOS>BOND
     1     1     2 1
     2     1    21 1
     3     2     3 1
     4     2     4 1
     5     2    22 1
     6     3     6 1
     7     3    23 1
     8     3    24 1
     9     4     5 1
    10     4    25 1
    11     4    26 1
    12     5     6 1
    13     5    19 1
    14     5    27 1
    15     6     7 1
    16     6    28 1
    17     7     8 2
    18     7    29 1
    19     8     9 1
    20     8    30 1
    21     9    10 1
    22     9    31 1
    23     9    32 1
    24    10    11 1
    25    10    33 1
    26    10    34 1
    27    11    12 1
    28    11    35 1
    29    11    36 1
    30    12    13 1
    31    12    14 1
    32    12    37 1
    33    13    38 1
    34    13    39 1
    35    13    40 1
    36    14    15 1
    37    15    16 2
    38    15    17 1
    39    17    18 2
    40    17    41 1
    41    18    19 1
    42    18    42 1
    43    19    20 1
    44    19    43 1
    45    20    44 1
@<TRIPOS>SUBSTRUCTURE
     1 AFB         1 TEMP              0 ****  ****    0 ROOT
