@<TRIPOS>MOLECULE
molecule
   51    54     1     0     0
SMALL
bcc


@<TRIPOS>ATOM
      1 O9           0.0000     0.0000     0.0000 oh         1 AFE      -0.597800
      2 C23          1.4300     0.0000     0.0000 c3         1 AFE       0.119100
      3 C22          1.9420     0.0000     1.4430 c3         1 AFE       0.114100
      4 O22          1.4090    -1.1280     2.1400 oh         1 AFE      -0.575800
      5 C24          1.9420    -1.2570    -0.7120 c3         1 AFE       0.124100
      6 O61          1.5300    -1.2310    -2.0810 oh         1 AFE      -0.601800
      7 C25          3.4710    -1.2880    -0.6380 c3         1 AFE       0.129100
      8 C51          3.9870    -2.5700    -1.2950 c3         1 AFE      -0.080100
      9 O7           3.8810    -1.2550     0.7300 os         1 AFE      -0.412600
     10 C21          3.4700    -0.0800     1.4340 c3         1 AFE       0.320900
     11 O8           4.0040     1.0760     0.7830 os         1 AFE      -0.343900
     12 C3           5.3350     1.3150     0.9430 cc         1 AFE      -0.080100
     13 C4           5.8670     1.5640     2.2340 c          1 AFE       0.574900
     14 O2           5.1540     1.5690     3.2240 o          1 AFE      -0.528100
     15 C2           6.1670     1.3120    -0.1370 cd         1 AFE       0.181900
     16 C11          5.5980     1.0460    -1.4700 ca         1 AFE      -0.079800
     17 C12          4.4510     1.7250    -1.8920 ca         1 AFE      -0.073500
     18 C13          3.9240     1.4730    -3.1400 ca         1 AFE      -0.160500
     19 C14          4.5290     0.5450    -3.9780 ca         1 AFE       0.135100
     20 O5           4.0050     0.3000    -5.2070 oh         1 AFE      -0.517100
     21 C15          5.6690    -0.1320    -3.5630 ca         1 AFE      -0.160500
     22 C16          6.2070     0.1170    -2.3200 ca         1 AFE      -0.073500
     23 O1           7.4860     1.5430    -0.0290 os         1 AFE      -0.196200
     24 C9           8.0810     1.7950     1.1550 ca         1 AFE       0.205100
     25 C8           9.4460     2.0280     1.2260 ca         1 AFE      -0.218000
     26 C7          10.0420     2.2850     2.4520 ca         1 AFE       0.203100
     27 O4          11.3790     2.5120     2.5130 oh         1 AFE      -0.515100
     28 C6           9.2850     2.3120     3.6180 ca         1 AFE      -0.298000
     29 C5           7.9230     2.0810     3.5670 ca         1 AFE       0.238100
     30 C10          7.3140     1.8150     2.3330 ca         1 AFE      -0.270600
     31 O3           7.1820     2.1070     4.7030 oh         1 AFE      -0.453100
     32 HO9         -0.3140     0.8800    -0.1280 ho         1 AFE       0.401000
     33 H23          1.7970     0.8810    -0.5130 h1         1 AFE       0.057700
     34 H22          1.6320     0.9140     1.9340 h1         1 AFE       0.051700
     35 HO22         0.8950    -0.8310     2.8720 ho         1 AFE       0.408000
     36 H24          1.5400    -2.1360    -0.2240 h1         1 AFE       0.070700
     37 HO61         0.8320    -1.8520    -2.2100 ho         1 AFE       0.410000
     38 H25          3.8730    -0.4250    -1.1550 h1         1 AFE       0.061700
     39 H512         5.0440    -2.6820    -1.0860 hc         1 AFE       0.046367
     40 H513         3.4480    -3.4210    -0.8970 hc         1 AFE       0.046367
     41 H511         3.8340    -2.5140    -2.3660 hc         1 AFE       0.046367
     42 H21          3.8340    -0.1260     2.4530 h2         1 AFE       0.110700
     43 H12          3.9780     2.4490    -1.2400 ha         1 AFE       0.148500
     44 H13          3.0350     1.9990    -3.4680 ha         1 AFE       0.148000
     45 HO5          4.4500     0.8290    -5.8490 ho         1 AFE       0.422000
     46 H15          6.1380    -0.8540    -4.2210 ha         1 AFE       0.148000
     47 H16          7.0950    -0.4120    -1.9980 ha         1 AFE       0.148500
     48 H8          10.0460     2.0160     0.3240 ha         1 AFE       0.162000
     49 HO4         11.5380     3.4390     2.5760 ho         1 AFE       0.430000
     50 H6           9.7640     2.5140     4.5680 ha         1 AFE       0.149000
     51 HO3          7.6470     2.5820     5.3710 ho         1 AFE       0.424000
@<TRIPOS>BOND
     1     4     3 1
     2     1     2 1
     3     3     2 1
     4     3    10 1
     5     2     5 1
     6     5     6 1
     7     5     7 1
     8    10     9 1
     9    10    11 1
    10     9     7 1
    11    11    12 1
    12    14    13 2
    13     7     8 1
    14    12    13 1
    15    12    15 2
    16    13    30 1
    17    17    18 ar
    18    17    16 ar
    19    31    29 1
    20    18    19 ar
    21    15    16 1
    22    15    23 1
    23    30    29 ar
    24    30    24 ar
    25    16    22 ar
    26    29    28 ar
    27    19    20 1
    28    19    21 ar
    29    23    24 1
    30    24    25 ar
    31    22    21 ar
    32    28    26 ar
    33    25    26 ar
    34    26    27 1
    35     1    32 1
    36     2    33 1
    37     3    34 1
    38     4    35 1
    39     5    36 1
    40     6    37 1
    41     7    38 1
    42     8    39 1
    43     8    40 1
    44     8    41 1
    45    10    42 1
    46    17    43 1
    47    18    44 1
    48    20    45 1
    49    21    46 1
    50    22    47 1
    51    25    48 1
    52    27    49 1
    53    28    50 1
    54    31    51 1
@<TRIPOS>SUBSTRUCTURE
     1 AFE         1 TEMP              0 ****  ****    0 ROOT
