@<TRIPOS>MOLECULE
AFE
   51    54     1     0     0
SMALL
bcc


@<TRIPOS>ATOM
      1 O9         -0.1730    0.2180    0.8450 oh        1 AFE     -0.598800
      2 C23         1.1710    0.0760    0.4320 c3        1 AFE      0.113100
      3 C22         2.1400    0.0810    1.6190 c3        1 AFE      0.094100
      4 O22         1.6390   -0.8480    2.5660 oh        1 AFE     -0.603800
      5 C24         1.3360   -1.2120   -0.3920 c3        1 AFE      0.084100
      6 O61         0.5340   -1.1600   -1.5600 oh        1 AFE     -0.598800
      7 C25         2.7980   -1.3550   -0.8430 c3        1 AFE      0.149100
      8 C51         3.0230   -2.6530   -1.5910 c3        1 AFE     -0.088100
      9 O7          3.6580   -1.4030    0.3030 os        1 AFE     -0.415600
     10 C21         3.5660   -0.3210    1.1900 c3        1 AFE      0.304900
     11 O8          4.1050    0.8040    0.4820 os        1 AFE     -0.349900
     12 C3          5.4360    1.0890    0.7420 cc        1 AFE     -0.080100
     13 C4          5.8190    1.3760    2.1380 c         1 AFE      0.596900
     14 O2          5.0150    1.2760    3.0750 o         1 AFE     -0.545100
     15 C2          6.3060    1.1990   -0.3000 cd        1 AFE      0.183900
     16 C11         6.0350    0.9820   -1.7190 ca        1 AFE     -0.106800
     17 C12         4.7800    1.3000   -2.2550 ca        1 AFE     -0.049000
     18 C13         4.5170    1.0840   -3.6040 ca        1 AFE     -0.197000
     19 C14         5.5210    0.5510   -4.4250 ca        1 AFE      0.149100
     20 O5          5.3360    0.3110   -5.7640 oh        1 AFE     -0.492100
     21 C15         6.7890    0.2360   -3.9020 ca        1 AFE     -0.197000
     22 C16         7.0360    0.4560   -2.5540 ca        1 AFE     -0.049000
     23 O1          7.6290    1.5880   -0.1140 os        1 AFE     -0.214200
     24 C9          8.0590    1.8590    1.1690 ca        1 AFE      0.214100
     25 C8          9.4070    2.2340    1.2570 ca        1 AFE     -0.232000
     26 C7          9.9210    2.5340    2.5240 ca        1 AFE      0.221100
     27 O4         11.2420    2.8970    2.5710 oh        1 AFE     -0.483100
     28 C6          9.1240    2.4660    3.6780 ca        1 AFE     -0.350000
     29 C5          7.7820    2.0880    3.5540 ca        1 AFE      0.251100
     30 C10         7.2170    1.7740    2.2940 ca        1 AFE     -0.280600
     31 O3          6.9570    2.0000    4.6390 oh        1 AFE     -0.450100
     32 HO9        -0.3330   -0.4310    1.5430 ho        1 AFE      0.421000
     33 H23         1.3730    0.9750   -0.2150 h1        1 AFE      0.094700
     34 H22         2.1820    1.1110    2.0730 h1        1 AFE      0.080700
     35 HO22        2.1640   -0.7420    3.3690 ho        1 AFE      0.421000
     36 H24         1.0350   -2.0990    0.2340 h1        1 AFE      0.061700
     37 HO61       -0.3360   -0.8430   -1.2780 ho        1 AFE      0.418000
     38 H25         3.0850   -0.4700   -1.4780 h1        1 AFE      0.060700
     39 H512        2.3140   -2.6970   -2.4520 hc        1 AFE      0.051033
     40 H513        2.8420   -3.5260   -0.9190 hc        1 AFE      0.051033
     41 H511        4.0730   -2.7030   -1.9640 hc        1 AFE      0.051033
     42 H21         4.1870   -0.6230    2.0800 h2        1 AFE      0.106700
     43 H12         3.9950    1.7210   -1.6040 ha        1 AFE      0.153500
     44 H13         3.5300    1.3280   -4.0210 ha        1 AFE      0.149500
     45 HO5         4.4250    0.5510   -5.9900 ho        1 AFE      0.424000
     46 H15         7.5620   -0.1780   -4.5640 ha        1 AFE      0.149500
     47 H16         8.0250    0.2180   -2.1310 ha        1 AFE      0.153500
     48 H8         10.0380    2.2930    0.3600 ha        1 AFE      0.176000
     49 HO4        11.4750    3.0800    3.4940 ho        1 AFE      0.428000
     50 H6          9.5460    2.7060    4.6620 ha        1 AFE      0.144000
     51 HO3         7.4650    2.2460    5.4290 ho        1 AFE      0.424000
@<TRIPOS>BOND
     1    1    2 1   
     2    1   32 1   
     3    2    3 1   
     4    2    5 1   
     5    2   33 1   
     6    3    4 1   
     7    3   10 1   
     8    3   34 1   
     9    4   35 1   
    10    5    6 1   
    11    5    7 1   
    12    5   36 1   
    13    6   37 1   
    14    7    8 1   
    15    7    9 1   
    16    7   38 1   
    17    8   39 1   
    18    8   40 1   
    19    8   41 1   
    20    9   10 1   
    21   10   11 1   
    22   10   42 1   
    23   11   12 1   
    24   12   13 1   
    25   12   15 2   
    26   13   14 2   
    27   13   30 1   
    28   15   16 1   
    29   15   23 1   
    30   16   17 ar  
    31   16   22 ar  
    32   17   18 ar  
    33   17   43 1   
    34   18   19 ar  
    35   18   44 1   
    36   19   20 1   
    37   19   21 ar  
    38   20   45 1   
    39   21   22 ar  
    40   21   46 1   
    41   22   47 1   
    42   23   24 1   
    43   24   25 ar  
    44   24   30 ar  
    45   25   26 ar  
    46   25   48 1   
    47   26   27 1   
    48   26   28 ar  
    49   27   49 1   
    50   28   29 ar  
    51   28   50 1   
    52   29   30 ar  
    53   29   31 1   
    54   31   51 1   
@<TRIPOS>SUBSTRUCTURE
     1 AFE         1 TEMP              0 ****  ****    0 ROOT
