@<TRIPOS>MOLECULE
AFI
   45    48     1     0     0
SMALL
bcc


@<TRIPOS>ATOM
      1 O1          0.2070   -0.5890   -0.2350 o         1 AFI     -0.552100
      2 O2          4.8970    2.0830    0.1360 oh        1 AFI     -0.517100
      3 C1          1.3990   -0.2400   -0.2130 c         1 AFI      0.590900
      4 C2          2.2360   -0.3700    1.0050 cc        1 AFI     -0.212200
      5 C3          3.3640    0.5540    1.0670 cc        1 AFI      0.162100
      6 C4          3.8510    1.1890   -0.0430 cd        1 AFI     -0.042100
      7 C5          3.8130    1.5620   -2.5110 ca        1 AFI     -0.145000
      8 C6          3.1910    1.3760   -3.7410 ca        1 AFI     -0.094000
      9 C7          1.9940    0.6600   -3.8240 ca        1 AFI     -0.152000
     10 C8          1.4150    0.1370   -2.6720 ca        1 AFI     -0.065000
     11 C9          2.0380    0.3080   -1.4280 ca        1 AFI     -0.168600
     12 C10         3.2470    1.0240   -1.3460 ca        1 AFI      0.008200
     13 O6          3.9040    0.7820    2.3080 oh        1 AFI     -0.500100
     14 C11         2.8290   -1.4330    3.1670 c3        1 AFI     -0.070200
     15 C12         2.6980   -2.7040    3.9770 c3        1 AFI     -0.071400
     16 C13         1.2480   -3.1400    4.1090 c3        1 AFI     -0.024400
     17 C14         0.7070   -3.4060    2.7130 c3        1 AFI     -0.071400
     18 C15         0.7540   -2.1680    1.8470 c3        1 AFI     -0.070200
     19 C16         1.9630   -1.3080    1.9620 c2        1 AFI      0.059600
     20 CL          0.6950   -7.9390    7.6540 cl        1 AFI     -0.095400
     21 C17         1.1160   -4.3430    4.9860 ca        1 AFI     -0.073300
     22 C18         0.3480   -4.2740    6.1550 ca        1 AFI     -0.118000
     23 C19         0.2140   -5.3840    6.9850 ca        1 AFI     -0.123000
     24 C20         0.8540   -6.5800    6.6450 ca        1 AFI      0.015400
     25 C21         1.6230   -6.6650    5.4810 ca        1 AFI     -0.123000
     26 C22         1.7500   -5.5480    4.6590 ca        1 AFI     -0.118000
     27 H2          5.6060    1.7920   -0.4580 ho        1 AFI      0.415000
     28 H5          4.7440    2.1450   -2.4460 ha        1 AFI      0.134000
     29 HA          3.6420    1.7980   -4.6520 ha        1 AFI      0.135000
     30 H7          1.5050    0.5170   -4.7990 ha        1 AFI      0.138000
     31 H8          0.4610   -0.4130   -2.7200 ha        1 AFI      0.154000
     32 H6          4.6110    1.4440    2.2150 ho        1 AFI      0.441000
     33 H111        3.9100   -1.3340    2.8640 hc        1 AFI      0.081200
     34 H112        2.5990   -0.5460    3.8260 hc        1 AFI      0.081200
     35 H121        3.2890   -3.5260    3.4930 hc        1 AFI      0.049700
     36 H122        3.1380   -2.5320    4.9940 hc        1 AFI      0.049700
     37 H13         0.6600   -2.2910    4.5630 hc        1 AFI      0.059700
     38 H141       -0.3550   -3.7620    2.7770 hc        1 AFI      0.049700
     39 H142        1.3040   -4.2280    2.2350 hc        1 AFI      0.049700
     40 H151        0.6190   -2.4960    0.7760 hc        1 AFI      0.081200
     41 H152       -0.1330   -1.5100    2.0810 hc        1 AFI      0.081200
     42 H18        -0.1570   -3.3330    6.4250 ha        1 AFI      0.137500
     43 H19        -0.3920   -5.3180    7.9010 ha        1 AFI      0.147000
     44 H21         2.1260   -7.6070    5.2140 ha        1 AFI      0.147000
     45 H22         2.3560   -5.6170    3.7420 ha        1 AFI      0.137500
@<TRIPOS>BOND
     1    1    3 2   
     2    2    6 1   
     3    2   27 1   
     4    3    4 1   
     5    3   11 1   
     6    4    5 1   
     7    4   19 2   
     8    5    6 2   
     9    5   13 1   
    10    6   12 1   
    11    7    8 ar  
    12    7   12 ar  
    13    7   28 1   
    14    8    9 ar  
    15    8   29 1   
    16    9   10 ar  
    17    9   30 1   
    18   10   11 ar  
    19   10   31 1   
    20   11   12 ar  
    21   13   32 1   
    22   14   15 1   
    23   14   19 1   
    24   14   33 1   
    25   14   34 1   
    26   15   16 1   
    27   15   35 1   
    28   15   36 1   
    29   16   17 1   
    30   16   21 1   
    31   16   37 1   
    32   17   18 1   
    33   17   38 1   
    34   17   39 1   
    35   18   19 1   
    36   18   40 1   
    37   18   41 1   
    38   20   24 1   
    39   21   22 ar  
    40   21   26 ar  
    41   22   23 ar  
    42   22   42 1   
    43   23   24 ar  
    44   23   43 1   
    45   24   25 ar  
    46   25   26 ar  
    47   25   44 1   
    48   26   45 1   
@<TRIPOS>SUBSTRUCTURE
     1 AFI         1 TEMP              0 ****  ****    0 ROOT
