@<TRIPOS>MOLECULE
molecule
   45    48     1     0     0
SMALL
bcc


@<TRIPOS>ATOM
      1 O1           0.0000     0.0000     0.0000 o          1 AFI      -0.528100
      2 O2           5.0720     1.6690     0.0210 oh         1 AFI      -0.504100
      3 C1           1.2180     0.0000     0.0000 c          1 AFI       0.598900
      4 C2           2.0130     0.0000     1.2600 cc         1 AFI      -0.217200
      5 C3           3.2840     0.7560     1.2340 cc         1 AFI       0.111100
      6 C4           3.9010     0.9760     0.0470 cd         1 AFI       0.052900
      7 C5           4.0890     0.4860    -2.3840 ca         1 AFI      -0.119000
      8 C6           3.5360     0.0230    -3.5550 ca         1 AFI      -0.105000
      9 C7           2.2300    -0.4490    -3.5900 ca         1 AFI      -0.139000
     10 C8           1.4630    -0.4630    -2.4460 ca         1 AFI      -0.072000
     11 C9           2.0050     0.0000    -1.2480 ca         1 AFI      -0.160600
     12 C10          3.3290     0.4890    -1.2080 ca         1 AFI      -0.023800
     13 O6           3.8290     1.2230     2.3880 oh         1 AFI      -0.503100
     14 C11          2.4830    -0.7650     3.5860 c3         1 AFI      -0.067200
     15 C12          2.5590    -2.2370     4.0010 c3         1 AFI      -0.071400
     16 C13          1.1460    -2.7830     4.2020 c3         1 AFI      -0.030400
     17 C14          0.3830    -2.7470     2.8760 c3         1 AFI      -0.071400
     18 C15          0.2260    -1.3000     2.4160 c3         1 AFI      -0.067200
     19 C16          1.5940    -0.6540     2.3680 c2         1 AFI       0.015600
     20 Cl           1.4510    -8.4480     6.1780 cl         1 AFI      -0.111400
     21 C17          1.2220    -4.2040     4.6970 ca         1 AFI      -0.077300
     22 C18          0.6670    -4.5420     5.9170 ca         1 AFI      -0.116500
     23 C19          0.7380    -5.8440     6.3720 ca         1 AFI      -0.119000
     24 C20          1.3630    -6.8110     5.6080 ca         1 AFI       0.025400
     25 C21          1.9190    -6.4730     4.3860 ca         1 AFI      -0.119000
     26 C22          1.8430    -5.1700     3.9300 ca         1 AFI      -0.116500
     27 H2           4.8920     2.5870    -0.0910 ho         1 AFI       0.410000
     28 H5           5.1090     0.8500    -2.3720 ha         1 AFI       0.148000
     29 HA           4.1270     0.0280    -4.4640 ha         1 AFI       0.134000
     30 H7           1.8120    -0.8090    -4.5220 ha         1 AFI       0.136000
     31 H8           0.4440    -0.8310    -2.4770 ha         1 AFI       0.150000
     32 H6           3.7460     2.1620     2.4180 ho         1 AFI       0.418000
     33 H111         2.0630    -0.1810     4.3960 hc         1 AFI       0.077450
     34 H112         3.4750    -0.4040     3.3460 hc         1 AFI       0.077450
     35 H121         3.0580    -2.8040     3.2240 hc         1 AFI       0.051700
     36 H122         3.1130    -2.3210     4.9290 hc         1 AFI       0.051700
     37 H13          0.6260    -2.1720     4.9290 hc         1 AFI       0.057700
     38 H141         0.9350    -3.3040     2.1290 hc         1 AFI       0.051700
     39 H142        -0.5960    -3.1890     3.0130 hc         1 AFI       0.051700
     40 H151        -0.4030    -0.7630     3.1160 hc         1 AFI       0.077450
     41 H152        -0.2190    -1.2790     1.4290 hc         1 AFI       0.077450
     42 H18          0.1760    -3.7840     6.5160 ha         1 AFI       0.138000
     43 H19          0.3020    -6.1080     7.3290 ha         1 AFI       0.144000
     44 H21          2.4070    -7.2310     3.7850 ha         1 AFI       0.144000
     45 H22          2.2780    -4.9050     2.9740 ha         1 AFI       0.138000
@<TRIPOS>BOND
     1     1     3 2
     2     2     6 1
     3     2    27 1
     4     3     4 1
     5     3    11 1
     6     4     5 1
     7     4    19 2
     8     5     6 2
     9     5    13 1
    10     6    12 1
    11     7     8 ar
    12     7    12 ar
    13     7    28 1
    14     8     9 ar
    15     8    29 1
    16     9    10 ar
    17     9    30 1
    18    10    11 ar
    19    10    31 1
    20    11    12 ar
    21    13    32 1
    22    14    15 1
    23    14    19 1
    24    14    33 1
    25    14    34 1
    26    15    16 1
    27    15    35 1
    28    15    36 1
    29    16    17 1
    30    16    21 1
    31    16    37 1
    32    17    18 1
    33    17    38 1
    34    17    39 1
    35    18    19 1
    36    18    40 1
    37    18    41 1
    38    20    24 1
    39    21    22 ar
    40    21    26 ar
    41    22    23 ar
    42    22    42 1
    43    23    24 ar
    44    23    43 1
    45    24    25 ar
    46    25    26 ar
    47    25    44 1
    48    26    45 1
@<TRIPOS>SUBSTRUCTURE
     1 AFI         1 TEMP              0 ****  ****    0 ROOT
