@<TRIPOS>MOLECULE
AFJ
   82    81     1     0     0
SMALL
bcc


@<TRIPOS>ATOM
      1 S1           0.0000     0.0000     0.0000 ss         1 AFJ      -0.429200
      2 C2           1.8140     0.0000     0.0000 c3         1 AFJ       0.067700
      3 C5           2.3240     0.0000     1.4430 c3         1 AFJ      -0.018400
      4 C8           3.8540    -0.0000     1.4430 c3         1 AFJ      -0.058300
      5 N10          4.3430    -1.2520     0.8590 ns         1 AFJ      -0.174900
      6 C12          4.4710    -1.3680    -0.4780 c          1 AFJ       0.574100
      7 O13          4.1830    -0.4350    -1.1970 o          1 AFJ      -0.667100
      8 C14          4.9740    -2.6540    -1.0780 c3         1 AFJ      -0.103400
      9 C17          5.0260    -2.5210    -2.6010 c3         1 AFJ      -0.012400
     10 C20          5.5360    -3.8290    -3.2100 c3         1 AFJ      -0.058700
     11 C22          4.5280    -4.9470    -2.9360 c3         1 AFJ       0.004400
     12 C26          5.7060    -3.6550    -4.7210 c3         1 AFJ       0.004400
     13 C30          4.3560     0.1240     2.8580 c          1 AFJ       0.562100
     14 O31          5.0540    -0.7470     3.3330 o          1 AFJ      -0.656100
     15 N32          4.0310     1.2030     3.5970 ns         1 AFJ      -0.161900
     16 C34          4.5180     1.3230     4.9720 c3         1 AFJ      -0.004300
     17 C36          3.5750     2.2250     5.7720 c3         1 AFJ       0.154100
     18 O38          3.5270     3.5190     5.1680 oh         1 AFJ      -0.598800
     19 C40          2.1720     1.6130     5.7800 c3         1 AFJ      -0.029400
     20 C43          1.2600     2.4390     6.6890 c3         1 AFJ      -0.126700
     21 C45         -0.1770     1.9280     6.5710 c3         1 AFJ       0.007900
     22 C49          1.7250     2.3090     8.1170 c          1 AFJ       0.572100
     23 O50          2.6890     1.6220     8.3820 o          1 AFJ      -0.653100
     24 N51          1.0670     2.9550     9.1020 ns         1 AFJ      -0.197900
     25 C53          1.5190     2.8280    10.4900 c3         1 AFJ       0.047000
     26 C56          0.6070     3.6550    11.3990 c3         1 AFJ      -0.043400
     27 C59          1.0790     3.5220    12.8490 c3         1 AFJ      -0.021400
     28 C62          0.1670     4.3480    13.7590 c3         1 AFJ       0.006900
     29 C66          5.9210     1.9350     4.9640 c3         1 AFJ      -0.042400
     30 C69          6.8920     0.9750     4.2730 c3         1 AFJ      -0.066700
     31 C71          8.2660     1.6380     4.1540 c3         1 AFJ       0.000900
     32 C75          7.0140    -0.3080     5.0980 c3         1 AFJ       0.000900
     33 C79         -0.4080    -0.0000    -1.7690 c3         1 AFJ       0.124000
     34 H2           2.1750    -0.8840    -0.5110 h1         1 AFJ       0.057200
     35 H2A          2.1750     0.8850    -0.5110 h1         1 AFJ       0.057200
     36 H5           1.9640     0.8850     1.9530 hc         1 AFJ       0.032200
     37 H5A          1.9630    -0.8840     1.9540 hc         1 AFJ       0.032200
     38 H8           4.2150     0.8360     0.8570 h1         1 AFJ       0.069700
     39 HN10         4.5760    -2.0230     1.4530 hn         1 AFJ       0.200500
     40 H14          5.9670    -2.8660    -0.7000 hc         1 AFJ       0.034200
     41 H14A         4.3050    -3.4630    -0.8090 hc         1 AFJ       0.034200
     42 H17          4.0330    -2.3090    -2.9790 hc         1 AFJ       0.030200
     43 H17A         5.6950    -1.7130    -2.8700 hc         1 AFJ       0.030200
     44 H20          6.4900    -4.0870    -2.7670 hc         1 AFJ       0.023700
     45 H22          3.5220    -4.5650    -3.0610 hc         1 AFJ       0.003200
     46 H22A         4.6540    -5.3060    -1.9220 hc         1 AFJ       0.003200
     47 H22B         4.6940    -5.7610    -3.6310 hc         1 AFJ       0.003200
     48 H26          4.7430    -3.4430    -5.1710 hc         1 AFJ       0.003200
     49 H26A         6.1100    -4.5650    -5.1460 hc         1 AFJ       0.003200
     50 H26B         6.3840    -2.8330    -4.9160 hc         1 AFJ       0.003200
     51 HN32         3.4890     1.9410     3.1930 hn         1 AFJ       0.190500
     52 H34          4.5550     0.3420     5.4300 h1         1 AFJ       0.076700
     53 H36          3.9360     2.3140     6.7890 h1         1 AFJ       0.052700
     54 HO38         3.7660     4.1720     5.8050 ho         1 AFJ       0.395000
     55 H40          1.7730     1.6130     4.7730 hc         1 AFJ       0.035200
     56 H40A         2.2240     0.5950     6.1480 hc         1 AFJ       0.035200
     57 H43          1.2990     3.4790     6.3910 hc         1 AFJ       0.044700
     58 H45         -0.3180     1.4680     5.6010 hc         1 AFJ       0.009700
     59 H45A        -0.3650     1.1970     7.3480 hc         1 AFJ       0.009700
     60 H45B        -0.8650     2.7570     6.6820 hc         1 AFJ       0.009700
     61 HN51         0.2590     3.5050     8.8860 hn         1 AFJ       0.177500
     62 H53          1.4800     1.7880    10.7890 h1         1 AFJ       0.027700
     63 H53A         2.5370     3.1900    10.5730 h1         1 AFJ       0.027700
     64 H56          0.6470     4.6950    11.1000 hc         1 AFJ       0.017200
     65 H56A        -0.4100     3.2930    11.3150 hc         1 AFJ       0.017200
     66 H59          1.0400     2.4810    13.1470 hc         1 AFJ       0.016200
     67 H59A         2.0960     3.8840    12.9320 hc         1 AFJ       0.016200
     68 H62         -0.8490     3.9800    13.6830 hc         1 AFJ       0.002033
     69 H62A         0.1980     5.3870    13.4540 hc         1 AFJ       0.002033
     70 H62B         0.5060     4.2630    14.7840 hc         1 AFJ       0.002033
     71 H66          5.9010     2.8760     4.4290 hc         1 AFJ       0.024200
     72 H66A         6.2470     2.1060     5.9830 hc         1 AFJ       0.024200
     73 H69          6.5200     0.7350     3.2840 hc         1 AFJ       0.043700
     74 H71          8.1850     2.5280     3.5410 hc         1 AFJ       0.005200
     75 H71A         8.6220     1.9090     5.1400 hc         1 AFJ       0.005200
     76 H71B         8.9620     0.9460     3.6960 hc         1 AFJ       0.005200
     77 H75          6.0350    -0.7540     5.2200 hc         1 AFJ       0.005200
     78 H75A         7.6670    -1.0050     4.5870 hc         1 AFJ       0.005200
     79 H75B         7.4280    -0.0730     6.0710 hc         1 AFJ       0.005200
     80 H79         -0.1890    -0.9740    -2.1890 h1         1 AFJ       0.031700
     81 H79A        -1.4600     0.2210    -1.8960 h1         1 AFJ       0.031700
     82 H79B         0.1840     0.7530    -2.2750 h1         1 AFJ       0.031700
@<TRIPOS>BOND
     1     1     2 1   
     2     1    33 1   
     3     2     3 1   
     4     2    34 1   
     5     2    35 1   
     6     3     4 1   
     7     3    36 1   
     8     3    37 1   
     9     4     5 1   
    10     4    13 1   
    11     4    38 1   
    12     5     6 1   
    13     5    39 1   
    14     6     7 2   
    15     6     8 1   
    16     8     9 1   
    17     8    40 1   
    18     8    41 1   
    19     9    10 1   
    20     9    42 1   
    21     9    43 1   
    22    10    11 1   
    23    10    12 1   
    24    10    44 1   
    25    11    45 1   
    26    11    46 1   
    27    11    47 1   
    28    12    48 1   
    29    12    49 1   
    30    12    50 1   
    31    13    14 2   
    32    13    15 1   
    33    15    16 1   
    34    15    51 1   
    35    16    17 1   
    36    16    29 1   
    37    16    52 1   
    38    17    18 1   
    39    17    19 1   
    40    17    53 1   
    41    18    54 1   
    42    19    20 1   
    43    19    55 1   
    44    19    56 1   
    45    20    21 1   
    46    20    22 1   
    47    20    57 1   
    48    21    58 1   
    49    21    59 1   
    50    21    60 1   
    51    22    23 2   
    52    22    24 1   
    53    24    25 1   
    54    24    61 1   
    55    25    26 1   
    56    25    62 1   
    57    25    63 1   
    58    26    27 1   
    59    26    64 1   
    60    26    65 1   
    61    27    28 1   
    62    27    66 1   
    63    27    67 1   
    64    28    68 1   
    65    28    69 1   
    66    28    70 1   
    67    29    30 1   
    68    29    71 1   
    69    29    72 1   
    70    30    31 1   
    71    30    32 1   
    72    30    73 1   
    73    31    74 1   
    74    31    75 1   
    75    31    76 1   
    76    32    77 1   
    77    32    78 1   
    78    32    79 1   
    79    33    80 1   
    80    33    81 1   
    81    33    82 1   
@<TRIPOS>SUBSTRUCTURE
     1 AFJ         1 TEMP              0 ****  ****    0 ROOT
