@<TRIPOS>MOLECULE
molecule
   35    36     1     0     0
SMALL
bcc


@<TRIPOS>ATOM
      1 C1           0.0000     0.0000     0.0000 ca         1 AFK       0.169100
      2 C2           1.3860     0.0000     0.0000 ca         1 AFK      -0.211000
      3 C3           2.0790     0.0000     1.1960 ca         1 AFK      -0.061000
      4 C4           1.3950     0.0000     2.3980 ca         1 AFK      -0.115300
      5 C5           2.1600     0.0010     3.6970 c3         1 AFK      -0.045800
      6 C6           0.0140     0.0010     2.4140 ca         1 AFK      -0.071000
      7 C14         -2.8810    -1.0940     0.7210 ca         1 AFK       0.047400
      8 Cl          -2.0220    -2.4590     0.0790 cl         1 AFK      -0.045400
      9 C13         -4.2610    -1.0900     0.7390 ca         1 AFK      -0.102000
     10 C11         -4.9460    -0.0040     1.2560 ca         1 AFK      -0.200300
     11 C12         -6.4530    -0.0070     1.2730 c3         1 AFK       0.162100
     12 N           -6.9270    -0.5940     2.5330 nz         1 AFK      -0.810600
     13 C10         -4.2530     1.0820     1.7570 ca         1 AFK      -0.103000
     14 C9          -2.8720     1.0890     1.7440 ca         1 AFK      -0.101000
     15 C8          -2.1770    -0.0000     1.2260 cp         1 AFK       0.059000
     16 C7          -0.6940     0.0000     1.2140 cp         1 AFK      -0.122000
     17 O           -0.6820     0.0040    -1.1740 os         1 AFK      -0.331900
     18 C            0.0940     0.0110    -2.3740 c3         1 AFK       0.125700
     19 H1           1.9270    -0.0000    -0.9380 ha         1 AFK       0.149000
     20 H2           3.1620     0.0000     1.1920 ha         1 AFK       0.146000
     21 H3           3.1970    -0.2500     3.5060 hc         1 AFK       0.048700
     22 H4           1.7300    -0.7300     4.3710 hc         1 AFK       0.048700
     23 H5           2.1040     0.9840     4.1490 hc         1 AFK       0.048700
     24 H6          -0.5180     0.0010     3.3570 ha         1 AFK       0.135000
     25 H7          -4.8100    -1.9370     0.3440 ha         1 AFK       0.145000
     26 H8          -6.8230    -0.5920     0.4390 hx         1 AFK       0.112200
     27 H9          -6.8170     1.0100     1.1890 hx         1 AFK       0.112200
     28 H10         -6.5000    -1.4900     2.6650 hn         1 AFK       0.454133
     29 H11         -7.9220    -0.7010     2.4980 hn         1 AFK       0.454133
     30 H13         -4.7940     1.9300     2.1600 ha         1 AFK       0.136000
     31 H14         -2.3300     1.9410     2.1370 ha         1 AFK       0.167000
     32 H15          0.7010    -0.8860    -2.4170 h1         1 AFK       0.049700
     33 H16         -0.5680     0.0390    -3.2320 h1         1 AFK       0.049700
     34 H17          0.7360     0.8830    -2.3850 h1         1 AFK       0.049700
     35 HN3         -6.6950     0.0140     3.2930 hn         1 AFK       0.454133
@<TRIPOS>BOND
     1    18    17 1
     2    17     1 1
     3    12    11 1
     4     1     2 ar
     5     1    16 ar
     6     8     7 1
     7     9     7 ar
     8     9    10 ar
     9    11    10 1
    10     2     3 ar
    11     7    15 ar
    12    10    13 ar
    13    15    14 ar
    14    15    16 1
    15    13    14 ar
    16    16     6 ar
    17     3     4 ar
    18     6     4 ar
    19     4     5 1
    20     2    19 1
    21     3    20 1
    22     5    21 1
    23     5    22 1
    24     5    23 1
    25     6    24 1
    26     9    25 1
    27    11    26 1
    28    11    27 1
    29    12    28 1
    30    12    29 1
    31    13    30 1
    32    14    31 1
    33    18    32 1
    34    18    33 1
    35    18    34 1
    36    35    12 1
@<TRIPOS>SUBSTRUCTURE
     1 AFK         1 TEMP              0 ****  ****    0 ROOT
