@<TRIPOS>MOLECULE
AFM
   58    62     1     0     0
SMALL
bcc


@<TRIPOS>ATOM
      1 C10          0.0000     0.0000     0.0000 ca         1 AFM       0.106100
      2 C13          1.4130     0.0020     2.3890 ca         1 AFM      -0.217200
      3 C17          0.0050     0.0080     2.4000 ca         1 AFM      -0.226900
      4 C21         -1.7130    -1.2580    -6.0490 c3         1 AFM       0.145800
      5 C22         -0.9180     0.0490    -6.0860 c3         1 AFM      -0.022400
      6 C24          2.8180     2.6500    -4.9260 ca         1 AFM      -0.185600
      7 C28          6.9620     0.1170    -5.1840 cc         1 AFM       0.329600
      8 C02          2.1010     3.8490    -4.8680 ca         1 AFM       0.180900
      9 C03          0.7190     3.8220    -4.8110 ca         1 AFM      -0.144000
     10 C04          0.0500     2.6130    -4.8120 ca         1 AFM      -0.050000
     11 C05          0.7540     1.4220    -4.8700 ca         1 AFM      -0.113300
     12 C06          0.0120     0.1100    -4.8710 c3         1 AFM       0.014600
     13 C07         -0.8210    -0.0070    -3.5930 c3         1 AFM      -0.054700
     14 C08          0.1070    -0.0080    -2.3760 c3         1 AFM       0.195400
     15 O09         -0.6760    -0.0010    -1.1800 os         1 AFM      -0.304900
     16 C11          1.3940     0.0000     0.0000 ca         1 AFM      -0.155000
     17 C12          2.0910     0.0000     1.1730 ca         1 AFM      -0.074000
     18 N14          1.8170     0.0030     3.7010 na         1 AFM       0.408900
     19 N15          0.6880     0.0110     4.5270 nc         1 AFM      -0.630100
     20 C16         -0.3950     0.0080     3.8030 cd         1 AFM       0.428800
     21 C18         -0.6980     0.0070     1.1890 ca         1 AFM      -0.067000
     22 C19         -1.6180    -1.3130    -3.6270 c3         1 AFM       0.147800
     23 N20         -2.4940    -1.3230    -4.8070 n7         1 AFM      -0.578200
     24 C23          2.1320     1.4340    -4.9270 ca         1 AFM      -0.063000
     25 N26          4.9800     1.5110    -5.0550 ns         1 AFM      -0.195900
     26 C27          6.4430     1.5310    -5.1220 c3         1 AFM       0.047700
     27 C29          7.2910    -0.5860    -6.3470 cc         1 AFM      -0.312300
     28 C30          7.7220    -1.8150    -5.9820 cd         1 AFM      -0.264300
     29 N31          7.6690    -1.8880    -4.6350 na         1 AFM       0.454400
     30 N32          7.1890    -0.6620    -4.1570 nd         1 AFM      -0.648800
     31 O33          4.8880     3.7300    -4.9930 o          1 AFM      -0.631100
     32 H1          -2.3840    -1.2950    -6.8980 h1         1 AFM       0.005700
     33 H2          -1.0280    -2.0970    -6.0870 h1         1 AFM       0.005700
     34 H3          -1.6030     0.8880    -6.0580 hc         1 AFM       0.026200
     35 H4          -0.3280     0.0870    -6.9940 hc         1 AFM       0.026200
     36 H5           0.1620     4.7490    -4.7650 ha         1 AFM       0.125000
     37 H6          -1.0330     2.5970    -4.7670 ha         1 AFM       0.119000
     38 H7           0.7190    -0.7100    -4.9170 hc         1 AFM       0.029700
     39 H8          -1.5060     0.8300    -3.5310 hc         1 AFM       0.056700
     40 H9           0.7360     0.8740    -2.4010 h1         1 AFM       0.007200
     41 H10          0.7280    -0.8950    -2.3950 h1         1 AFM       0.007200
     42 H11          1.9300    -0.0000    -0.9420 ha         1 AFM       0.119000
     43 H12          3.1750    -0.0000     1.1590 ha         1 AFM       0.104000
     44 H13          2.7670     0.0040     4.0150 hn         1 AFM       0.151700
     45 H14         -1.4120     0.0130     4.1770 h4         1 AFM       0.014800
     46 H15         -1.7730    -0.1240     1.1870 ha         1 AFM       0.116000
     47 H16         -0.9340    -2.1510    -3.6810 h1         1 AFM       0.014700
     48 H17         -2.2220    -1.3900    -2.7310 h1         1 AFM       0.014700
     49 H18         -3.0480    -2.1560    -4.8040 hn         1 AFM       0.254800
     50 H20          2.6800     0.5010    -4.9730 ha         1 AFM       0.109000
     51 H21          4.4910     0.6380    -5.0540 hn         1 AFM       0.179500
     52 H22          6.8390     2.0220    -4.2410 h1         1 AFM       0.035200
     53 H23          6.7570     2.0690    -6.0080 h1         1 AFM       0.035200
     54 H24          7.2130    -0.2130    -7.3610 ha         1 AFM       0.139000
     55 H25          8.0510    -2.6010    -6.6510 h4         1 AFM       0.146000
     56 H26          7.9270    -2.6770    -4.0770 hn         1 AFM       0.148700
     57 C25          4.2930     2.6690    -4.9930 c          1 AFM       0.592700
     58 F01          2.7560     5.0300    -4.8670 f          1 AFM      -0.106900
@<TRIPOS>BOND
     1     1    15 1   
     2     1    16 ar  
     3     1    21 ar  
     4     2     3 ar  
     5     2    17 ar  
     6     2    18 1   
     7     3    20 1   
     8     3    21 ar  
     9     4     5 1   
    10     4    23 1   
    11     4    32 1   
    12     4    33 1   
    13     5    12 1   
    14     5    34 1   
    15     5    35 1   
    16     6     8 ar  
    17     6    24 ar  
    18     6    57 1   
    19     7    26 1   
    20     7    27 1   
    21     7    30 2   
    22     8     9 ar  
    23     8    58 1   
    24     9    10 ar  
    25     9    36 1   
    26    10    11 ar  
    27    10    37 1   
    28    11    12 1   
    29    11    24 ar  
    30    12    13 1   
    31    12    38 1   
    32    13    14 1   
    33    13    22 1   
    34    13    39 1   
    35    14    15 1   
    36    14    40 1   
    37    14    41 1   
    38    16    17 ar  
    39    16    42 1   
    40    17    43 1   
    41    18    19 1   
    42    18    44 1   
    43    19    20 2   
    44    20    45 1   
    45    21    46 1   
    46    22    23 1   
    47    22    47 1   
    48    22    48 1   
    49    23    49 1   
    50    24    50 1   
    51    25    26 1   
    52    25    51 1   
    53    25    57 1   
    54    26    52 1   
    55    26    53 1   
    56    27    28 2   
    57    27    54 1   
    58    28    29 1   
    59    28    55 1   
    60    29    30 1   
    61    29    56 1   
    62    31    57 2   
@<TRIPOS>SUBSTRUCTURE
     1 AFM         1 TEMP              0 ****  ****    0 ROOT
