@<TRIPOS>MOLECULE
AFN
   38    42     1     0     0
SMALL
bcc


@<TRIPOS>ATOM
      1 C8A         0.1320    0.0480   -0.2900 c3        1 AFN      0.122400
      2 C9          1.6490   -0.1070   -0.0820 c3        1 AFN      0.124100
      3 O9          2.0140   -1.3850   -0.5670 oh        1 AFN     -0.590800
      4 C9A         1.8650    0.0000    1.4390 c3        1 AFN     -0.065400
      5 C9B         2.4020    1.3230    1.8660 ca        1 AFN     -0.253300
      6 O7         -0.5180   -0.0020    0.9910 os        1 AFN     -0.402600
      7 C6A         0.4210    0.0210    2.0340 c3        1 AFN      0.321900
      8 O6A         0.2190    1.3210    2.6710 os        1 AFN     -0.317900
      9 C5A         1.3900    2.0340    2.5580 ca        1 AFN      0.231100
     10 C5B         1.5770    3.3100    3.0830 ca        1 AFN     -0.274000
     11 C4B         2.8390    3.8920    2.9050 ca        1 AFN      0.240100
     12 O4          3.1550    5.1430    3.3760 os        1 AFN     -0.324900
     13 CM          2.1220    5.8480    4.0670 c3        1 AFN      0.108700
     14 C4A         3.8890    3.2230    2.2210 ca        1 AFN     -0.229800
     15 C10         3.6470    1.9190    1.6950 ca        1 AFN      0.262100
     16 O10         4.5890    1.2020    1.0090 os        1 AFN     -0.349200
     17 C11         5.8830    1.7340    0.7980 c         1 AFN      0.764800
     18 O11         6.5550    0.9280    0.1660 o         1 AFN     -0.535500
     19 C12         6.1510    3.0420    1.3300 cc        1 AFN     -0.351400
     20 C3A         5.1940    3.7590    2.0120 cd        1 AFN      0.134600
     21 C3          5.7200    5.0870    2.4590 c3        1 AFN     -0.056200
     22 C2A         7.1700    5.1250    1.9640 c3        1 AFN     -0.190400
     23 C1          7.4140    3.8040    1.2460 c         1 AFN      0.598300
     24 O1          8.4670    3.4710    0.7140 o         1 AFN     -0.498100
     25 H8A2       -0.2950   -0.7960   -0.8890 h1        1 AFN      0.073200
     26 H8A        -0.1130    1.0350   -0.7540 h1        1 AFN      0.073200
     27 H9          2.2220    0.6920   -0.6250 h1        1 AFN      0.067700
     28 HO9         2.9790   -1.4270   -0.5490 ho        1 AFN      0.418000
     29 H9A         2.4700   -0.8550    1.8240 hc        1 AFN      0.105700
     30 H6A         0.1520   -0.7520    2.7930 h2        1 AFN      0.117700
     31 H5B         0.7580    3.8180    3.6070 ha        1 AFN      0.169000
     32 HM1         1.8110    5.2880    4.9810 h1        1 AFN      0.056367
     33 HM2         2.6160    6.8150    4.3410 h1        1 AFN      0.056367
     34 HM3         1.2500    6.0250    3.3920 h1        1 AFN      0.056367
     35 H31         5.6550    5.1750    3.5740 hc        1 AFN      0.084700
     36 H32         5.1060    5.9150    2.0210 hc        1 AFN      0.084700
     37 H2A1        7.8890    5.2290    2.8130 hc        1 AFN      0.082700
     38 H2A2        7.3380    5.9730    1.2560 hc        1 AFN      0.082700
@<TRIPOS>BOND
     1    1    2 1   
     2    1    6 1   
     3    1   25 1   
     4    1   26 1   
     5    2    3 1   
     6    2    4 1   
     7    2   27 1   
     8    3   28 1   
     9    4    5 1   
    10    4    7 1   
    11    4   29 1   
    12    5    9 ar  
    13    5   15 ar  
    14    6    7 1   
    15    7    8 1   
    16    7   30 1   
    17    8    9 1   
    18    9   10 ar  
    19   10   11 ar  
    20   10   31 1   
    21   11   12 1   
    22   11   14 ar  
    23   12   13 1   
    24   13   32 1   
    25   13   33 1   
    26   13   34 1   
    27   14   15 ar  
    28   14   20 1   
    29   15   16 1   
    30   16   17 1   
    31   17   18 2   
    32   17   19 1   
    33   19   20 2   
    34   19   23 1   
    35   20   21 1   
    36   21   22 1   
    37   21   35 1   
    38   21   36 1   
    39   22   23 1   
    40   22   37 1   
    41   22   38 1   
    42   23   24 2   
@<TRIPOS>SUBSTRUCTURE
     1 AFN         1 TEMP              0 ****  ****    0 ROOT
