@<TRIPOS>MOLECULE
AFQ
   52    55     1     0     0
SMALL
bcc


@<TRIPOS>ATOM
      1 C2           0.0000     0.0000     0.0000 c          1 AFQ       0.635100
      2 O16         -0.6300    -0.0000    -1.0420 o          1 AFQ      -0.607500
      3 N3           1.3520     0.0000     0.0000 ns         1 AFQ      -0.027400
      4 C4           2.0470     0.0000     1.1760 cc         1 AFQ      -0.036200
      5 N17          3.4200    -0.0000     1.1240 nz         1 AFQ       0.220400
      6 N5           1.4670     0.0010     2.3490 nd         1 AFQ      -0.336100
      7 C6           0.1150     0.0010     2.4720 ca         1 AFQ       0.036400
      8 C10         -0.4940     0.0010     3.7210 ca         1 AFQ       0.052700
      9 C18          0.3450     0.0020     4.9730 c3         1 AFQ       0.015900
     10 C19          0.6280     1.4450     5.3950 c3         1 AFQ       0.152800
     11 N20          1.4460     1.4460     6.6160 n7         1 AFQ      -0.593200
     12 C21          1.7390     2.8170     7.0530 c3         1 AFQ       0.149800
     13 C22          2.5900     2.7770     8.3240 c3         1 AFQ      -0.052700
     14 C26          2.8070     4.2020     8.8740 c3         1 AFQ      -0.019900
     15 C25          4.2480     4.2500     9.4110 c3         1 AFQ      -0.024400
     16 C24          4.8570     2.8530     9.1690 c3         1 AFQ      -0.024400
     17 C23          4.0190     2.2710     8.0040 c3         1 AFQ      -0.019900
     18 C9          -1.8860     0.0020     3.8090 ca         1 AFQ       0.126400
     19 N11         -2.7440     0.0030     4.8610 nc         1 AFQ      -0.599100
     20 C12         -3.9800     0.0040     4.4250 cd         1 AFQ       0.371700
     21 N14         -5.1000     0.0050     5.2260 nu         1 AFQ      -0.431200
     22 C15         -6.4330     0.0050     4.6200 c3         1 AFQ       0.185100
     23 N13         -3.9940     0.0020     3.0600 na         1 AFQ       0.238700
     24 C8          -2.6710     0.0020     2.6370 ca         1 AFQ      -0.254200
     25 C7          -2.0720     0.0030     1.3930 ca         1 AFQ       0.018000
     26 C1          -0.6820     0.0070     1.2990 ca         1 AFQ      -0.182600
     27 HN3          1.8480     0.0000    -0.8690 hn         1 AFQ       0.182500
     28 HN17         3.7860    -0.3260     1.9970 hn         1 AFQ       0.213133
     29 HN1A         3.7260    -0.6050     0.3880 hn         1 AFQ       0.213133
     30 H18         -0.1900    -0.5080     5.7650 hc         1 AFQ       0.040200
     31 H18A         1.2800    -0.5090     4.7810 hc         1 AFQ       0.040200
     32 H19          1.1630     1.9550     4.6030 h1         1 AFQ       0.007700
     33 H19A        -0.3070     1.9560     5.5870 h1         1 AFQ       0.007700
     34 HN20         0.9590     0.9610     7.3440 hn         1 AFQ       0.262800
     35 H21          0.8110     3.3380     7.2560 h1         1 AFQ       0.008700
     36 H21A         2.2820     3.3370     6.2720 h1         1 AFQ       0.008700
     37 H22          2.1290     2.1490     9.0770 hc         1 AFQ       0.033700
     38 H26          2.6840     4.9270     8.0790 hc         1 AFQ       0.015200
     39 H26A         2.1060     4.3990     9.6760 hc         1 AFQ       0.015200
     40 H25          4.8180     5.0000     8.8750 hc         1 AFQ       0.015950
     41 H25A         4.2400     4.4710    10.4720 hc         1 AFQ       0.015950
     42 H24          4.7520     2.2370    10.0540 hc         1 AFQ       0.015950
     43 H24A         5.8970     2.9390     8.8800 hc         1 AFQ       0.015950
     44 H23          4.0520     1.1890     8.0130 hc         1 AFQ       0.015200
     45 H23A         4.3590     2.6660     7.0540 hc         1 AFQ       0.015200
     46 HN14        -5.0030     0.0240     6.2220 hn         1 AFQ       0.321800
     47 H15         -6.5520    -0.8810     4.0080 h1         1 AFQ       0.015367
     48 H15A        -6.5490     0.8880     4.0030 h1         1 AFQ       0.015367
     49 H15B        -7.1850     0.0090     5.4000 h1         1 AFQ       0.015367
     50 HN13        -4.8050     0.0030     2.4740 hn         1 AFQ       0.147700
     51 H7          -2.6760     0.1240     0.5020 ha         1 AFQ       0.134000
     52 H173         3.7470     0.9290     0.9490 hn         1 AFQ       0.213133
@<TRIPOS>BOND
     1     1     2 2   
     2     1     3 1   
     3     1    26 1   
     4     3     4 1   
     5     3    27 1   
     6     4     5 1   
     7     4     6 2   
     8     5    28 1   
     9     5    29 1   
    10     5    52 1   
    11     6     7 1   
    12     7     8 ar  
    13     7    26 ar  
    14     8     9 1   
    15     8    18 ar  
    16     9    10 1   
    17     9    30 1   
    18     9    31 1   
    19    10    11 1   
    20    10    32 1   
    21    10    33 1   
    22    11    12 1   
    23    11    34 1   
    24    12    13 1   
    25    12    35 1   
    26    12    36 1   
    27    13    14 1   
    28    13    17 1   
    29    13    37 1   
    30    14    15 1   
    31    14    38 1   
    32    14    39 1   
    33    15    16 1   
    34    15    40 1   
    35    15    41 1   
    36    16    17 1   
    37    16    42 1   
    38    16    43 1   
    39    17    44 1   
    40    17    45 1   
    41    18    19 1   
    42    18    24 ar  
    43    19    20 2   
    44    20    21 1   
    45    20    23 1   
    46    21    22 1   
    47    21    46 1   
    48    22    47 1   
    49    22    48 1   
    50    22    49 1   
    51    23    24 1   
    52    23    50 1   
    53    24    25 ar  
    54    25    26 ar  
    55    25    51 1   
@<TRIPOS>SUBSTRUCTURE
     1 AFQ         1 TEMP              0 ****  ****    0 ROOT
