@<TRIPOS>MOLECULE
AFS
   23    22     1     0     0
SMALL
bcc


@<TRIPOS>ATOM
      1 O1          0.2000   -0.7430   -0.2830 o         1 AFS     -0.743100
      2 N1          1.8240   -0.6090   -2.4860 n3        1 AFS     -0.890800
      3 CA1         2.2160    0.1370   -1.2960 c3        1 AFS      0.063500
      4 C1          1.2940   -0.1450   -0.0630 c         1 AFS      0.589100
      5 CB1         2.2540    1.6420   -1.5340 c3        1 AFS     -0.088100
      6 N2          1.7410    0.2890    1.1270 n         1 AFS     -0.435900
      7 CA2         1.0890    0.2070    2.3930 c3        1 AFS     -0.105500
      8 CB2         1.2320   -1.0850    3.1400 c3        1 AFS     -0.065100
      9 P           1.9970    1.4390    3.5020 p5        1 AFS      1.192700
     10 O21         1.8140    0.9010    4.8960 o         1 AFS     -0.932833
     11 O22         3.4080    1.3570    2.9480 o         1 AFS     -0.932833
     12 O23         1.2860    2.7290    3.2010 o         1 AFS     -0.932833
     13 H4          3.2610   -0.2120   -1.0390 h1        1 AFS      0.056700
     14 H5          2.8830    1.8890   -2.4240 hc        1 AFS      0.038033
     15 H6          2.6860    2.1510   -0.6370 hc        1 AFS      0.038033
     16 H7          1.2240    2.0390   -1.7020 hc        1 AFS      0.038033
     17 H8          2.6580    0.7210    1.1970 hn        1 AFS      0.354500
     18 H9          0.0210    0.5070    2.2990 h1        1 AFS      0.049700
     19 H10         0.7780   -1.9630    2.6180 hc        1 AFS      0.013700
     20 H11         0.7450   -0.9430    4.1370 hc        1 AFS      0.013700
     21 H12         2.3160   -1.2910    3.3240 hc        1 AFS      0.013700
     22 H1          0.9450   -0.2470   -2.8120 hn        1 AFS      0.332800
     23 H2          1.6530   -1.5600   -2.2100 hn        1 AFS      0.332800
@<TRIPOS>BOND
     1    1    4 2   
     2    2    3 1   
     3    2   22 1   
     4    2   23 1   
     5    3    4 1   
     6    3    5 1   
     7    3   13 1   
     8    4    6 1   
     9    5   14 1   
    10    5   15 1   
    11    5   16 1   
    12    6    7 1   
    13    6   17 1   
    14    7    8 1   
    15    7    9 1   
    16    7   18 1   
    17    8   19 1   
    18    8   20 1   
    19    8   21 1   
    20    9   10 1   
    21    9   11 1   
    22    9   12 1   
@<TRIPOS>SUBSTRUCTURE
     1 AFS         1 TEMP              0 ****  ****    0 ROOT
