@<TRIPOS>MOLECULE
AFT
   35    39     1     0     0
SMALL
bcc


@<TRIPOS>ATOM
      1 C8A         0.3630    0.5430   -0.0700 c2        1 AFT      0.023100
      2 C9B         0.8100   -2.1060    1.8780 ca        1 AFT     -0.234300
      3 O7          1.6620    0.7510    0.4130 os        1 AFT     -0.331900
      4 C6A         1.7890    0.0560    1.6550 c3        1 AFT      0.295900
      5 O6A         2.7850   -0.9630    1.3940 os        1 AFT     -0.307900
      6 C5A         2.1810   -2.1960    1.5390 ca        1 AFT      0.221100
      7 C5B         2.8590   -3.4030    1.3930 ca        1 AFT     -0.269000
      8 C4B         2.1180   -4.5740    1.6030 ca        1 AFT      0.236100
      9 O4          2.6640   -5.8300    1.4890 os        1 AFT     -0.324900
     10 CM          4.0430   -5.8990    1.1250 c3        1 AFT      0.108700
     11 C4A         0.7420   -4.5430    1.9540 ca        1 AFT     -0.225800
     12 C10         0.0930   -3.2800    2.0880 ca        1 AFT      0.264100
     13 O10        -1.2270   -3.1510    2.4240 os        1 AFT     -0.338200
     14 C11        -2.0250   -4.2950    2.6540 c         1 AFT      0.762800
     15 O11        -3.1660   -3.9500    2.9370 o         1 AFT     -0.533500
     16 C12        -1.3900   -5.5790    2.5230 cc        1 AFT     -0.348400
     17 C3A        -0.0600   -5.6990    2.1860 cd        1 AFT      0.131600
     18 C3          0.3590   -7.1340    2.1120 c3        1 AFT     -0.056200
     19 C2A        -0.9040   -7.9320    2.4540 c3        1 AFT     -0.190400
     20 C9A         0.4100   -0.6690    1.9260 c3        1 AFT      0.016800
     21 C1         -2.0030   -6.9090    2.7100 c         1 AFT      0.597300
     22 C9         -0.3980   -0.2260    0.7380 c2        1 AFT     -0.256200
     23 O1         -3.1620   -7.1760    3.0120 o         1 AFT     -0.498100
     24 H8A1        0.1800    1.0550   -1.0150 h4        1 AFT      0.188000
     25 H91C       -1.4330   -0.5330    0.6040 ha        1 AFT      0.178000
     26 H9A        -0.0580   -0.3810    2.8960 hc        1 AFT      0.103700
     27 H6A         2.2010    0.7460    2.4250 h2        1 AFT      0.119700
     28 H5B         3.9220   -3.4130    1.1240 ha        1 AFT      0.168000
     29 HM1C        4.6770   -5.4060    1.9020 h1        1 AFT      0.055367
     30 HM2C        4.2420   -7.0000    1.0910 h1        1 AFT      0.055367
     31 HM3C        4.2080   -5.4340    0.1230 h1        1 AFT      0.055367
     32 H31C        1.1890   -7.3340    2.8360 hc        1 AFT      0.083700
     33 H32C        0.7420   -7.3740    1.0870 hc        1 AFT      0.083700
     34 H2A1       -1.2040   -8.6030    1.6110 hc        1 AFT      0.082700
     35 H2A2       -0.7560   -8.5620    3.3650 hc        1 AFT      0.082700
@<TRIPOS>BOND
     1    1    3 1   
     2    1   22 2   
     3    1   24 1   
     4    2    6 ar  
     5    2   12 ar  
     6    2   20 1   
     7    3    4 1   
     8    4    5 1   
     9    4   20 1   
    10    4   27 1   
    11    5    6 1   
    12    6    7 ar  
    13    7    8 ar  
    14    7   28 1   
    15    8    9 1   
    16    8   11 ar  
    17    9   10 1   
    18   10   29 1   
    19   10   30 1   
    20   10   31 1   
    21   11   12 ar  
    22   11   17 1   
    23   12   13 1   
    24   13   14 1   
    25   14   15 2   
    26   14   16 1   
    27   16   17 2   
    28   16   21 1   
    29   17   18 1   
    30   18   19 1   
    31   18   32 1   
    32   18   33 1   
    33   19   21 1   
    34   19   34 1   
    35   19   35 1   
    36   20   22 1   
    37   20   26 1   
    38   21   23 2   
    39   22   25 1   
@<TRIPOS>SUBSTRUCTURE
     1 AFT         1 TEMP              0 ****  ****    0 ROOT
