@<TRIPOS>MOLECULE
molecule
   35    39     1     0     0
SMALL
bcc


@<TRIPOS>ATOM
      1 C8A          0.0000     0.0000     0.0000 c2         1 AFT       0.028100
      2 C9B          0.9670    -2.1300     2.0170 ca         1 AFT      -0.228300
      3 O7           1.3520     0.0000     0.0000 os         1 AFT      -0.337900
      4 C6A          1.8180     0.0000     1.3610 c3         1 AFT       0.320900
      5 O6A          2.8540    -0.9780     1.5130 os         1 AFT      -0.290900
      6 C5A          2.3040    -2.2150     1.6480 ca         1 AFT       0.229100
      7 C5B          2.8980    -3.4690     1.4770 ca         1 AFT      -0.271000
      8 C4B          2.1650    -4.6210     1.6620 ca         1 AFT       0.239100
      9 O4           2.7510    -5.8340     1.5070 os         1 AFT      -0.317900
     10 CM           4.1350    -5.8440     1.1510 c3         1 AFT       0.122700
     11 C4A          0.8070    -4.5350     2.0110 ca         1 AFT      -0.208800
     12 C10          0.2090    -3.2670     2.2240 ca         1 AFT       0.270100
     13 O10         -1.0690    -3.1550     2.6570 os         1 AFT      -0.316200
     14 C11         -1.9480    -4.1470     2.3640 c          1 AFT       0.766800
     15 O11         -3.1230    -3.9250     2.1360 o          1 AFT      -0.530500
     16 C12         -1.3860    -5.5130     2.3400 cc         1 AFT      -0.366400
     17 C3A         -0.0070    -5.6730     2.1540 cd         1 AFT       0.099600
     18 C3           0.3330    -7.1290     2.1510 c3         1 AFT      -0.049200
     19 C2A         -0.9960    -7.8740     2.3690 c3         1 AFT      -0.186400
     20 C9A          0.6140    -0.6580     2.1050 c3         1 AFT      -0.028200
     21 C1          -2.0470    -6.7890     2.4830 c          1 AFT       0.601300
     22 C9          -0.5280    -0.3660     1.1480 c2         1 AFT      -0.259200
     23 O1          -3.2350    -6.9620     2.6640 o          1 AFT      -0.498100
     24 H8A1        -0.5420     0.6710    -0.6560 h4         1 AFT       0.182000
     25 H91C        -1.5850    -0.4370     1.3730 ha         1 AFT       0.176000
     26 H9A          0.4630    -0.2900     3.1130 hc         1 AFT       0.098700
     27 H6A          2.0770     0.9820     1.7390 h2         1 AFT       0.129700
     28 H5B          3.9430    -3.5350     1.1980 ha         1 AFT       0.157000
     29 HM1C         4.7080    -5.3370     1.9170 h1         1 AFT       0.051367
     30 HM2C         4.4780    -6.8680     1.0630 h1         1 AFT       0.051367
     31 HM3C         4.2680    -5.3360     0.2040 h1         1 AFT       0.051367
     32 H31C         0.7640    -7.4080     1.1970 hc         1 AFT       0.077700
     33 H32C         1.0200    -7.3520     2.9580 hc         1 AFT       0.077700
     34 H2A1        -0.9550    -8.4530     3.2830 hc         1 AFT       0.079200
     35 H2A2        -1.2100    -8.5140     1.5210 hc         1 AFT       0.079200
@<TRIPOS>BOND
     1     1     3 1
     2     1    22 2
     3     2     6 ar
     4     2    12 ar
     5     2    20 1
     6     3     4 1
     7     4     5 1
     8     4    20 1
     9     5     6 1
    10     6     7 ar
    11     7     8 ar
    12     8     9 1
    13     8    11 ar
    14     9    10 1
    15    11    12 ar
    16    11    17 1
    17    12    13 1
    18    13    14 1
    19    14    15 2
    20    14    16 1
    21    16    17 2
    22    16    21 1
    23    17    18 1
    24    18    19 1
    25    19    21 1
    26    21    23 2
    27    20    22 1
    28     1    24 1
    29    22    25 1
    30    20    26 1
    31     4    27 1
    32     7    28 1
    33    10    29 1
    34    10    30 1
    35    10    31 1
    36    18    32 1
    37    18    33 1
    38    19    34 1
    39    19    35 1
@<TRIPOS>SUBSTRUCTURE
     1 AFT         1 TEMP              0 ****  ****    0 ROOT
