@<TRIPOS>MOLECULE
molecule
   35    36     1     0     0
SMALL
bcc


@<TRIPOS>ATOM
      1 C2           0.0000     0.0000     0.0000 ca         1 AFW      -0.221000
      2 C4           2.0800     0.0000     1.1940 ca         1 AFW      -0.218300
      3 C5           1.4010    -0.0000     2.3970 ca         1 AFW      -0.023000
      4 C6           0.0080     0.0120     2.4080 cp         1 AFW      -0.128000
      5 C7          -0.7260     0.0130     3.6960 cp         1 AFW       0.050000
      6 F2           4.0450     0.6590     0.0380 f          1 AFW      -0.218967
      7 C14          3.5870     0.0000     1.1830 c3         1 AFW       0.680200
      8 F            4.0620     0.6590     2.3230 f          1 AFW      -0.218967
      9 F1           4.0530    -1.3200     1.1800 f          1 AFW      -0.218967
     10 C3           1.3830     0.0000     0.0000 ca         1 AFW      -0.016000
     11 C1          -0.6940     0.0060     1.1990 ca         1 AFW       0.199100
     12 O           -2.0530     0.0060     1.2000 os         1 AFW      -0.325900
     13 C           -2.7030     0.0010    -0.0720 c3         1 AFW       0.123700
     14 C13         -1.5210    -1.0780     4.0500 ca         1 AFW       0.048400
     15 Cl          -1.6530    -2.4400     2.9830 cl         1 AFW      -0.044400
     16 C12         -2.2020    -1.0710     5.2510 ca         1 AFW      -0.101000
     17 C10         -2.0980     0.0140     6.1030 ca         1 AFW      -0.196300
     18 C11         -2.8440     0.0160     7.4110 c3         1 AFW       0.162100
     19 N           -1.9990    -0.5750     8.4570 nz         1 AFW      -0.811600
     20 C9          -1.3110     1.0970     5.7560 ca         1 AFW      -0.102000
     21 C8          -0.6200     1.1000     4.5610 ca         1 AFW      -0.097000
     22 H1          -0.5410    -0.0010    -0.9390 ha         1 AFW       0.158000
     23 H2           1.9490    -0.0710     3.3280 ha         1 AFW       0.151000
     24 H3           1.9220    -0.0010    -0.9390 ha         1 AFW       0.162000
     25 H4          -2.4020    -0.8790    -0.6280 h1         1 AFW       0.053367
     26 H5          -2.4230     0.8890    -0.6250 h1         1 AFW       0.053367
     27 H6          -3.7770    -0.0120     0.0710 h1         1 AFW       0.053367
     28 H7          -2.8200    -1.9180     5.5270 ha         1 AFW       0.147000
     29 H8          -3.0960     1.0340     7.6820 hx         1 AFW       0.112700
     30 H9          -3.7530    -0.5660     7.3100 hx         1 AFW       0.112700
     31 H10         -2.5500    -0.7470     9.2750 hn         1 AFW       0.454800
     32 H11         -1.6140    -1.4390     8.1280 hn         1 AFW       0.454800
     33 H13         -1.2310     1.9440     6.4280 ha         1 AFW       0.138000
     34 H14         -0.0050     1.9500     4.2920 ha         1 AFW       0.169000
     35 HN3         -1.2660     0.0630     8.6950 hn         1 AFW       0.454800
@<TRIPOS>BOND
     1    13    12 1
     2    12    11 1
     3    19    18 1
     4    15    14 1
     5    18    17 1
     6    11     1 ar
     7    11     4 ar
     8    16    14 ar
     9    16    17 ar
    10     1    10 ar
    11    14     5 ar
    12    17    20 ar
    13     5     4 1
    14     5    21 ar
    15    20    21 ar
    16     4     3 ar
    17    10     2 ar
    18     3     2 ar
    19     2     7 1
    20     7     9 1
    21     7     8 1
    22     7     6 1
    23     1    22 1
    24     3    23 1
    25    10    24 1
    26    13    25 1
    27    13    26 1
    28    13    27 1
    29    16    28 1
    30    18    29 1
    31    18    30 1
    32    19    31 1
    33    19    32 1
    34    20    33 1
    35    21    34 1
    36    35    19 1
@<TRIPOS>SUBSTRUCTURE
     1 AFW         1 TEMP              0 ****  ****    0 ROOT
