@<TRIPOS>MOLECULE
AFX
   30    32     1     0     0
SMALL
bcc


@<TRIPOS>ATOM
      1 C1           0.0000     0.0000     0.0000 c3         1 AFX       0.305600
      2 F1           1.6540     0.0020     2.4330 f          1 AFX      -0.111500
      3 N1           0.9750     1.9480     8.3300 nb         1 AFX      -0.744000
      4 O1           1.4290     0.0000     0.0000 oh         1 AFX      -0.591800
      5 C2           0.8330     0.6830     7.9770 ca         1 AFX       0.701900
      6 N3           0.4430     0.3250     6.7730 nb         1 AFX      -0.685000
      7 C4           0.1730     1.2400     5.8480 ca         1 AFX       0.279800
      8 C5           0.3100     2.6000     6.1730 ca         1 AFX      -0.249200
      9 C6           0.7290     2.9330     7.4730 ca         1 AFX       0.595200
     10 N6           0.8800     4.2550     7.8510 nv         1 AFX      -0.475500
     11 N7          -0.0210     3.3100     5.0670 nc         1 AFX      -0.476100
     12 C8          -0.3430     2.4920     4.1080 cd         1 AFX       0.227700
     13 N9          -0.2390     1.2040     4.5400 na         1 AFX       0.207000
     14 C1'         -0.5170     0.0000     3.7510 c3         1 AFX      -0.043800
     15 C2'         -1.9790    -0.0010     3.2700 c3         1 AFX       0.082100
     16 O2'         -2.6560    -1.1760     3.7220 oh         1 AFX      -0.552800
     17 C3'         -1.8660    -0.0000     1.7610 c          1 AFX       0.614300
     18 O3'         -2.7940    -0.0010     0.9780 o          1 AFX      -0.519100
     19 C4'         -0.5010    -0.0000     1.4220 ce         1 AFX      -0.279400
     20 C5'          0.3040     0.0010     2.4840 c2         1 AFX       0.170300
     21 H1          -0.3610     0.8850    -0.5100 h1         1 AFX       0.003700
     22 H1A         -0.3610    -0.8850    -0.5110 h1         1 AFX       0.003700
     23 HO1          1.7440    -0.0050    -0.8890 ho         1 AFX       0.399000
     24 HN6          0.6900     4.9880     7.1960 hn         1 AFX       0.277300
     25 HN6A         1.1790     4.4790     8.7800 hn         1 AFX       0.277300
     26 H8          -0.6500     2.7920     3.1130 h5         1 AFX       0.034800
     27 H1'         -0.3120    -0.8930     4.3300 h1         1 AFX       0.104700
     28 H2'         -2.4890     0.8930     3.6100 h1         1 AFX       0.039700
     29 HO2'        -3.5430    -0.9590     3.9540 ho         1 AFX       0.407000
     30 H2           1.0450    -0.0890     8.7080 h5         1 AFX      -0.002900
@<TRIPOS>BOND
     1     1     4 1   
     2     1    19 1   
     3     1    21 1   
     4     1    22 1   
     5     2    20 1   
     6     3     5 ar  
     7     3     9 ar  
     8     4    23 1   
     9     5     6 ar  
    10     5    30 1   
    11     6     7 ar  
    12     7     8 ar  
    13     7    13 1   
    14     8     9 ar  
    15     8    11 1   
    16     9    10 1   
    17    10    24 1   
    18    10    25 1   
    19    11    12 2   
    20    12    13 1   
    21    12    26 1   
    22    13    14 1   
    23    14    15 1   
    24    14    20 1   
    25    14    27 1   
    26    15    16 1   
    27    15    17 1   
    28    15    28 1   
    29    16    29 1   
    30    17    18 2   
    31    17    19 1   
    32    19    20 2   
@<TRIPOS>SUBSTRUCTURE
     1 AFX         1 TEMP              0 ****  ****    0 ROOT
