@<TRIPOS>MOLECULE
molecule
   30    32     1     0     0
SMALL
bcc


@<TRIPOS>ATOM
      1 C1           0.0000     0.0000     0.0000 c3         1 AFX       0.203600
      2 F1           1.6540     0.0020     2.4330 f          1 AFX      -0.101500
      3 N1           0.9750     1.9480     8.3300 nb         1 AFX      -0.835000
      4 O1           1.4290     0.0000     0.0000 oh         1 AFX      -0.608800
      5 C2           0.8330     0.6830     7.9770 ca         1 AFX       0.750900
      6 N3           0.4430     0.3250     6.7730 nb         1 AFX      -0.797000
      7 C4           0.1730     1.2400     5.8480 ca         1 AFX       0.481800
      8 C5           0.3100     2.6000     6.1730 ca         1 AFX      -0.216200
      9 C6           0.7290     2.9330     7.4730 ca         1 AFX       0.793200
     10 N6           0.8800     4.2550     7.8510 nv         1 AFX      -0.980500
     11 N7          -0.0210     3.3100     5.0670 nc         1 AFX      -0.570100
     12 C8          -0.3430     2.4920     4.1080 cd         1 AFX       0.407700
     13 N9          -0.2390     1.2040     4.5400 na         1 AFX      -0.255000
     14 C1'         -0.5170     0.0000     3.7510 c3         1 AFX       0.065200
     15 C2'         -1.9790    -0.0010     3.2700 c3         1 AFX       0.035100
     16 O2'         -2.6560    -1.1760     3.7220 oh         1 AFX      -0.571800
     17 C3'         -1.8660    -0.0000     1.7610 c          1 AFX       0.570300
     18 O3'         -2.7940    -0.0010     0.9780 o          1 AFX      -0.491100
     19 C4'         -0.5010    -0.0000     1.4220 ce         1 AFX      -0.274400
     20 C5'          0.3040     0.0010     2.4840 c2         1 AFX       0.195300
     21 H1          -0.3610     0.8850    -0.5100 h1         1 AFX       0.045200
     22 H1A         -0.3610    -0.8850    -0.5110 h1         1 AFX       0.045200
     23 HO1          1.7440    -0.0050    -0.8890 ho         1 AFX       0.413000
     24 HN6          0.6900     4.9880     7.1960 hn         1 AFX       0.451800
     25 HN6A         1.1790     4.4790     8.7800 hn         1 AFX       0.451800
     26 H8          -0.6500     2.7920     3.1130 h5         1 AFX       0.081800
     27 H1'         -0.3120    -0.8930     4.3300 h1         1 AFX       0.139700
     28 H2'         -2.4890     0.8930     3.6100 h1         1 AFX       0.080700
     29 HO2'        -3.5430    -0.9590     3.9540 ho         1 AFX       0.423000
     30 H2           1.0450    -0.0890     8.7080 h5         1 AFX       0.064100
@<TRIPOS>BOND
     1     1     4 1
     2     1    19 1
     3     2    20 1
     4     3     5 ar
     5     3     9 ar
     6     5     6 ar
     7     6     7 ar
     8     7     8 ar
     9     7    13 1
    10     8     9 ar
    11     8    11 1
    12     9    10 1
    13    11    12 2
    14    12    13 1
    15    13    14 1
    16    14    15 1
    17    14    20 1
    18    15    16 1
    19    15    17 1
    20    17    18 2
    21    17    19 1
    22    19    20 2
    23     1    21 1
    24     1    22 1
    25     4    23 1
    26     5    30 1
    27    10    24 1
    28    10    25 1
    29    12    26 1
    30    14    27 1
    31    15    28 1
    32    16    29 1
@<TRIPOS>SUBSTRUCTURE
     1 AFX         1 TEMP              0 ****  ****    0 ROOT
