@<TRIPOS>MOLECULE
molecule
   56    56     1     0     0
SMALL
bcc


@<TRIPOS>ATOM
      1 C10          0.0000     0.0000     0.0000 c3         1 AFY      -0.029300
      2 C12         -2.4010     0.1570     1.5090 cy         1 AFY      -0.006900
      3 C13         -2.8450     1.5130     0.9260 cy         1 AFY       0.128900
      4 C15         -3.1360     0.5910     2.7910 cy         1 AFY       0.128900
      5 C16         -3.0320    -1.0500     0.8120 c3         1 AFY      -0.186400
      6 C22          8.3820    -1.2130    -6.4800 c3         1 AFY      -0.066000
      7 C17         -2.8830    -2.2690     1.6870 c          1 AFY       0.890600
      8 P27          9.9730    -2.6810    -9.8030 p5         1 AFY       1.184900
      9 O01          6.5920     0.3340    -6.9730 oh         1 AFY      -0.602800
     10 C02          7.6920     0.0960    -6.0920 c3         1 AFY       0.082100
     11 C03          7.1890    -0.0010    -4.6750 c          1 AFY       0.652100
     12 N04          5.8630    -0.0000    -4.4290 ns         1 AFY      -0.595900
     13 C05          5.3750    -0.0010    -3.0490 c3         1 AFY       0.127000
     14 C06          3.8450    -0.0010    -3.0480 c3         1 AFY      -0.177400
     15 C07          3.3430    -0.0010    -1.6280 c          1 AFY       0.659100
     16 N08          2.0180     0.0000    -1.3810 ns         1 AFY      -0.589900
     17 C09          1.5300     0.0000     0.0000 c3         1 AFY       0.128000
     18 S11         -0.6050     0.0000     1.7110 ss         1 AFY      -0.243200
     19 O14         -2.9570     1.9370     2.2990 oq         1 AFY      -0.442600
     20 O18         -3.4490    -3.4290     1.3240 o          1 AFY      -0.841800
     21 O19         -2.2530    -2.2000     2.7160 o          1 AFY      -0.841800
     22 O20          4.1320    -0.0010    -0.7050 o          1 AFY      -0.610100
     23 O21          7.9760    -0.0800    -3.7560 o          1 AFY      -0.624100
     24 C25          8.7780    -1.1640    -7.9570 c3         1 AFY       0.232400
     25 O26          9.4220    -2.3870    -8.3190 os         1 AFY      -0.578200
     26 O28         10.7520    -4.0910    -9.8160 o          1 AFY      -0.913167
     27 O29          8.7380    -2.7410   -10.8330 o          1 AFY      -0.913167
     28 O30         10.9020    -1.6020   -10.2070 o          1 AFY      -0.913167
     29 H1          -0.3610     0.8850    -0.5110 h1         1 AFY       0.055700
     30 H2          -0.3610    -0.8850    -0.5110 h1         1 AFY       0.055700
     31 H3          -2.0590     2.0230     0.3840 h1         1 AFY       0.059700
     32 H4          -3.7990     1.4660     0.4150 h1         1 AFY       0.059700
     33 H5          -4.1730     0.2800     2.8160 h1         1 AFY       0.059700
     34 H6          -2.5740     0.3890     3.6950 h1         1 AFY       0.059700
     35 H7          -4.0840    -0.8570     0.6380 hc         1 AFY       0.036200
     36 H8          -2.5350    -1.2220    -0.1350 hc         1 AFY       0.036200
     37 H9           6.6020     1.2340    -7.2520 ho         1 AFY       0.387000
     38 H10          8.3990     0.9130    -6.1690 h1         1 AFY       0.054700
     39 H11          5.2130     0.0370    -5.1890 hn         1 AFY       0.323500
     40 H12          5.7370     0.8840    -2.5380 h1         1 AFY       0.060700
     41 H13          5.7370    -0.8850    -2.5380 h1         1 AFY       0.060700
     42 H14          3.4840     0.8840    -3.5580 hc         1 AFY       0.061200
     43 H15          3.4840    -0.8850    -3.5590 hc         1 AFY       0.061200
     44 H16          1.3680    -0.0030    -2.1420 hn         1 AFY       0.309500
     45 H17          1.8910     0.8840     0.5110 h1         1 AFY       0.062200
     46 H18          1.8910    -0.8850     0.5110 h1         1 AFY       0.062200
     47 H20         10.3240    -2.0650    -6.1310 hc         1 AFY       0.035867
     48 H21          9.3560    -1.8370    -4.6680 hc         1 AFY       0.035867
     49 H22         10.1090    -0.4430    -5.4570 hc         1 AFY       0.035867
     50 H23          6.5050    -2.2110    -6.7970 hc         1 AFY       0.035867
     51 H24          7.2020    -2.4660    -5.1920 hc         1 AFY       0.035867
     52 H25          7.8830    -3.3000    -6.5950 hc         1 AFY       0.035867
     53 H26          7.8910    -1.0290    -8.5650 h1         1 AFY       0.014700
     54 H27          9.4570    -0.3360    -8.1210 h1         1 AFY       0.014700
     55 C23          9.6340    -1.4030    -5.6220 c3         1 AFY      -0.074100
     56 C24          7.4230    -2.3830    -6.2490 c3         1 AFY      -0.074100
@<TRIPOS>BOND
     1    28     8 1
     2    26     8 1
     3    24    25 1
     4    24     6 1
     5     8    25 1
     6     8    27 1
     7    56     6 1
     8     6    55 1
     9     6    10 1
    10    10     9 1
    11    10    11 1
    12    11    12 1
    13    11    23 2
    14    12    13 1
    15    13    14 1
    16    21     7 1
    17    19     4 1
    18    19     3 1
    19     4     2 1
    20    14    15 1
    21     7    20 1
    22     7     5 1
    23     3     2 1
    24     2     5 1
    25     2    18 1
    26    15    22 2
    27    15    16 1
    28     1    18 1
    29     1    17 1
    30    17    16 1
    31     1    29 1
    32     1    30 1
    33     3    31 1
    34     3    32 1
    35     4    33 1
    36     4    34 1
    37     5    35 1
    38     5    36 1
    39     9    37 1
    40    10    38 1
    41    12    39 1
    42    13    40 1
    43    13    41 1
    44    14    42 1
    45    14    43 1
    46    16    44 1
    47    17    45 1
    48    17    46 1
    49    55    47 1
    50    55    48 1
    51    55    49 1
    52    56    50 1
    53    56    51 1
    54    56    52 1
    55    24    53 1
    56    24    54 1
@<TRIPOS>SUBSTRUCTURE
     1 AFY         1 TEMP              0 ****  ****    0 ROOT
