@<TRIPOS>MOLECULE
AFY
   56    56     1     0     0
SMALL
bcc


@<TRIPOS>ATOM
      1 C10          0.0000     0.0000     0.0000 c3         1 AFY       0.048700
      2 C12         -2.4010     0.1570     1.5090 cy         1 AFY       0.012100
      3 C13         -2.8450     1.5130     0.9260 cy         1 AFY       0.210900
      4 C15         -3.1360     0.5910     2.7910 cy         1 AFY       0.210900
      5 C16         -3.0320    -1.0500     0.8120 c3         1 AFY      -0.135400
      6 C22          8.3820    -1.2130    -6.4800 c3         1 AFY      -0.088000
      7 C17         -2.8830    -2.2690     1.6870 c          1 AFY       0.975600
      8 P27          9.9730    -2.6810    -9.8030 p5         1 AFY       0.671900
      9 O01          6.5920     0.3340    -6.9730 oh         1 AFY      -0.580800
     10 C02          7.6920     0.0960    -6.0920 c3         1 AFY       0.128100
     11 C03          7.1890    -0.0010    -4.6750 c          1 AFY       0.568100
     12 N04          5.8630    -0.0000    -4.4290 ns         1 AFY      -0.224900
     13 C05          5.3750    -0.0010    -3.0490 c3         1 AFY       0.064000
     14 C06          3.8450    -0.0010    -3.0480 c3         1 AFY      -0.111400
     15 C07          3.3430    -0.0010    -1.6280 c          1 AFY       0.574100
     16 N08          2.0180     0.0000    -1.3810 ns         1 AFY      -0.207900
     17 C09          1.5300     0.0000     0.0000 c3         1 AFY       0.071000
     18 S11         -0.6050     0.0000     1.7110 ss         1 AFY      -0.324200
     19 O14         -2.9570     1.9370     2.2990 oq         1 AFY      -0.435600
     20 O18         -3.4490    -3.4290     1.3240 o          1 AFY      -0.888800
     21 O19         -2.2530    -2.2000     2.7160 o          1 AFY      -0.888800
     22 O20          4.1320    -0.0010    -0.7050 o          1 AFY      -0.645100
     23 O21          7.9760    -0.0800    -3.7560 o          1 AFY      -0.664100
     24 C25          8.7780    -1.1640    -7.9570 c3         1 AFY       0.291400
     25 O26          9.4220    -2.3870    -8.3190 os         1 AFY      -0.472200
     26 O28         10.7520    -4.0910    -9.8160 o          1 AFY      -0.758500
     27 O29          8.7380    -2.7410   -10.8330 o          1 AFY      -0.758500
     28 O30         10.9020    -1.6020   -10.2070 o          1 AFY      -0.758500
     29 H1          -0.3610     0.8850    -0.5110 h1         1 AFY       0.034200
     30 H2          -0.3610    -0.8850    -0.5110 h1         1 AFY       0.034200
     31 H3          -2.0590     2.0230     0.3840 h1         1 AFY       0.022700
     32 H4          -3.7990     1.4660     0.4150 h1         1 AFY       0.022700
     33 H5          -4.1730     0.2800     2.8160 h1         1 AFY       0.022700
     34 H6          -2.5740     0.3890     3.6950 h1         1 AFY       0.022700
     35 H7          -4.0840    -0.8570     0.6380 hc         1 AFY       0.014200
     36 H8          -2.5350    -1.2220    -0.1350 hc         1 AFY       0.014200
     37 H9           6.6020     1.2340    -7.2520 ho         1 AFY       0.372000
     38 H10          8.3990     0.9130    -6.1690 h1         1 AFY       0.018700
     39 H11          5.2130     0.0370    -5.1890 hn         1 AFY       0.189500
     40 H12          5.7370     0.8840    -2.5380 h1         1 AFY       0.033200
     41 H13          5.7370    -0.8850    -2.5380 h1         1 AFY       0.033200
     42 H14          3.4840     0.8840    -3.5580 hc         1 AFY       0.027200
     43 H15          3.4840    -0.8850    -3.5590 hc         1 AFY       0.027200
     44 H16          1.3680    -0.0030    -2.1420 hn         1 AFY       0.170500
     45 H17          1.8910     0.8840     0.5110 h1         1 AFY       0.037200
     46 H18          1.8910    -0.8850     0.5110 h1         1 AFY       0.037200
     47 H20         10.3240    -2.0650    -6.1310 hc         1 AFY       0.005700
     48 H21          9.3560    -1.8370    -4.6680 hc         1 AFY       0.005700
     49 H22         10.1090    -0.4430    -5.4570 hc         1 AFY       0.005700
     50 H23          6.5050    -2.2110    -6.7970 hc         1 AFY       0.005700
     51 H24          7.2020    -2.4660    -5.1920 hc         1 AFY       0.005700
     52 H25          7.8830    -3.3000    -6.5950 hc         1 AFY       0.005700
     53 H26          7.8910    -1.0290    -8.5650 h1         1 AFY      -0.026300
     54 H27          9.4570    -0.3360    -8.1210 h1         1 AFY      -0.026300
     55 C23          9.6340    -1.4030    -5.6220 c3         1 AFY       0.001400
     56 C24          7.4230    -2.3830    -6.2490 c3         1 AFY       0.001400
@<TRIPOS>BOND
     1     1    17 1   
     2     1    18 1   
     3     1    29 1   
     4     1    30 1   
     5     2     3 1   
     6     2     4 1   
     7     2     5 1   
     8     2    18 1   
     9     3    19 1   
    10     3    31 1   
    11     3    32 1   
    12     4    19 1   
    13     4    33 1   
    14     4    34 1   
    15     5     7 1   
    16     5    35 1   
    17     5    36 1   
    18     6    10 1   
    19     6    24 1   
    20     6    55 1   
    21     6    56 1   
    22     7    20 1   
    23     7    21 1   
    24     8    25 1   
    25     8    26 1   
    26     8    27 1   
    27     8    28 1   
    28     9    10 1   
    29     9    37 1   
    30    10    11 1   
    31    10    38 1   
    32    11    12 1   
    33    11    23 2   
    34    12    13 1   
    35    12    39 1   
    36    13    14 1   
    37    13    40 1   
    38    13    41 1   
    39    14    15 1   
    40    14    42 1   
    41    14    43 1   
    42    15    16 1   
    43    15    22 2   
    44    16    17 1   
    45    16    44 1   
    46    17    45 1   
    47    17    46 1   
    48    24    25 1   
    49    24    53 1   
    50    24    54 1   
    51    47    55 1   
    52    48    55 1   
    53    49    55 1   
    54    50    56 1   
    55    51    56 1   
    56    52    56 1   
@<TRIPOS>SUBSTRUCTURE
     1 AFY         1 TEMP              0 ****  ****    0 ROOT
