@<TRIPOS>MOLECULE
AFZ
   41    43     1     0     0
SMALL
bcc


@<TRIPOS>ATOM
      1 N1          0.2710   -0.8930    0.1940 n4        1 AFZ     -0.890600
      2 C2          1.4700    0.0650    0.1780 ce        1 AFZ      0.627800
      3 N3          1.8830    0.7380    1.1640 n2        1 AFZ     -0.663100
      4 C4          2.0890    0.0780   -1.1690 ca        1 AFZ     -0.215900
      5 C7          3.4000   -0.3870   -1.3220 ca        1 AFZ     -0.080000
      6 C8          4.0100   -0.3270   -2.5730 ca        1 AFZ     -0.105500
      7 C5          1.3920    0.6140   -2.2600 ca        1 AFZ     -0.080000
      8 C6          2.0060    0.6760   -3.5070 ca        1 AFZ     -0.105500
      9 C9          3.3210    0.2080   -3.6740 ca        1 AFZ     -0.062500
     10 C10         3.9580    0.2920   -4.9650 cc        1 AFZ      0.271200
     11 C13         3.6300    0.9060   -6.1630 cd        1 AFZ     -0.186300
     12 O11         5.2010   -0.3610   -5.0970 os        1 AFZ     -0.337800
     13 C12         5.6300   -0.1500   -6.3920 cc        1 AFZ      0.326600
     14 C14         4.7070    0.6240   -7.0910 cd        1 AFZ     -0.221300
     15 C15         4.8010    1.0600   -8.4610 ca        1 AFZ      0.065000
     16 C16         4.0660    2.1690   -8.9150 ca        1 AFZ     -0.120000
     17 C17         4.1600    2.5870  -10.2380 ca        1 AFZ     -0.081000
     18 C20         4.9920    1.8980  -11.1300 ca        1 AFZ     -0.274900
     19 C21         5.0510    2.2960  -12.5510 ce        1 AFZ      0.589800
     20 N22         5.8330    3.5720  -12.7420 n4        1 AFZ     -0.824600
     21 N23         4.5750    1.7590  -13.6050 n2        1 AFZ     -0.701100
     22 C19         5.7310    0.7920  -10.6920 ca        1 AFZ     -0.081000
     23 C18         5.6350    0.3800   -9.3670 ca        1 AFZ     -0.120000
     24 H24        -0.3230   -0.6880   -0.6150 hn        1 AFZ      0.458800
     25 H25         0.6180   -1.8540    0.1060 hn        1 AFZ      0.458800
     26 H27         1.4800    0.7210    2.0760 hn        1 AFZ      0.471400
     27 H30         3.9600   -0.7840   -0.4590 ha        1 AFZ      0.152500
     28 H31         5.0440   -0.6920   -2.6980 ha        1 AFZ      0.168500
     29 H28         0.3750    1.0170   -2.1380 ha        1 AFZ      0.152500
     30 H29         1.4610    1.1030   -4.3640 ha        1 AFZ      0.168500
     31 H33         2.7360    1.4850   -6.3850 ha        1 AFZ      0.173000
     32 H32         6.5920   -0.6040   -6.6300 h4        1 AFZ      0.076100
     33 H34         3.4090    2.7130   -8.2170 ha        1 AFZ      0.160000
     34 H35         3.5620    3.4470  -10.5800 ha        1 AFZ      0.150000
     35 H39         5.8050    3.9010  -13.7160 hn        1 AFZ      0.471800
     36 H38         5.4340    4.2870  -12.1250 hn        1 AFZ      0.471800
     37 H41         4.0460    0.9150  -13.5220 hn        1 AFZ      0.493400
     38 H37         6.3800    0.2390  -11.3890 ha        1 AFZ      0.150000
     39 H36         6.2120   -0.4970   -9.0280 ha        1 AFZ      0.160000
     40 H13        -0.2870   -0.8170    1.0470 hn        1 AFZ      0.458800
     41 H223        6.8060    3.3970  -12.4700 hn        1 AFZ      0.471800
@<TRIPOS>BOND
     1    1    2 1
     2    1   24 1
     3    1   25 1
     4    1   40 1
     5    2    3 2
     6    2    4 1
     7    3   26 1
     8    4    5 ar
     9    4    7 ar
    10    5    6 ar
    11    5   27 1
    12    6    9 ar
    13    6   28 1
    14    7    8 ar
    15    7   29 1
    16    8    9 ar
    17    8   30 1
    18    9   10 1
    19   10   11 2
    20   10   12 1
    21   11   14 1
    22   11   31 1
    23   12   13 1
    24   13   14 2
    25   13   32 1
    26   14   15 1
    27   15   16 ar
    28   15   23 ar
    29   16   17 ar
    30   16   33 1
    31   17   18 ar
    32   17   34 1
    33   18   19 1
    34   18   22 ar
    35   19   20 1
    36   19   21 2
    37   20   35 1
    38   20   36 1
    39   20   41 1
    40   21   37 1
    41   22   23 ar
    42   22   38 1
    43   23   39 1
@<TRIPOS>SUBSTRUCTURE
     1 AFZ         1 TEMP              0 ****  ****    0 ROOT
