@<TRIPOS>MOLECULE
molecule
   74    78     1     0     0
SMALL
bcc


@<TRIPOS>ATOM
      1 O19          0.0000     0.0000     0.0000 o          1 AG0      -0.562500
      2 C17          1.2160     0.0000     0.0000 c          1 AG0       0.748800
      3 C18          1.9230     0.0000     1.2260 ce         1 AG0      -0.271400
      4 C13          3.2670     0.0240     1.2380 c2         1 AG0       0.146900
      5 O20          3.9320     0.0170     2.4100 oh         1 AG0      -0.488100
      6 C1           1.1630    -0.0290     2.5280 c3         1 AG0       0.002500
      7 C9           0.8050     1.3790     2.9310 cd         1 AG0       0.584300
      8 N8          -0.2970     2.0040     2.5930 nc         1 AG0      -0.586100
      9 N10          1.5530     2.1730     3.6850 nd         1 AG0      -0.449300
     10 C4           0.9460     3.3420     3.8480 cc         1 AG0       0.453500
     11 N5          -0.2380     3.2810     3.1670 na         1 AG0       0.010200
     12 C6          -1.0790     4.3490     3.1590 cd         1 AG0       0.073400
     13 C7          -0.7250     5.4730     3.8330 cc         1 AG0      -0.331300
     14 C12         -2.3860     4.2870     2.4100 c3         1 AG0      -0.054800
     15 N3           1.2860     4.4540     4.5110 nc         1 AG0      -0.679000
     16 C2           0.4960     5.5030     4.5180 cd         1 AG0       0.491600
     17 C11          0.9040     6.7430     5.2700 c3         1 AG0      -0.145400
     18 O16          1.8910    -0.0050    -1.1690 os         1 AG0      -0.408900
     19 C15          3.1870    -0.6170    -1.1510 c3         1 AG0       0.178800
     20 C14          4.0300     0.0580    -0.0630 c3         1 AG0      -0.121200
     21 C27          3.8610    -0.4340    -2.5110 c3         1 AG0      -0.067700
     22 C23          4.0220     1.0650    -2.8370 c3         1 AG0      -0.079900
     23 C26          2.9520    -0.9730    -3.6430 c3         1 AG0      -0.079900
     24 C25          3.4540    -0.1950    -4.8850 c3         1 AG0      -0.081900
     25 C24          3.7630     1.2170    -4.3460 c3         1 AG0      -0.081900
     26 C21          3.0450    -2.1090    -0.8440 c3         1 AG0      -0.106400
     27 C22          4.4130    -2.7850    -0.9550 c3         1 AG0      -0.037100
     28 C29          4.2930    -4.2320    -0.5510 ca         1 AG0      -0.046300
     29 C30          3.9980    -5.2090    -1.4900 ca         1 AG0      -0.253800
     30 C28          4.4800    -4.6180     0.7680 ca         1 AG0      -0.253800
     31 C33          4.3620    -5.9550     1.1000 ca         1 AG0       0.438100
     32 C34          4.5630    -6.3860     2.5300 c3         1 AG0      -0.128200
     33 C35          3.3340    -7.1630     3.0060 c3         1 AG0      -0.083100
     34 N32          4.0750    -6.8560     0.1820 nb         1 AG0      -0.694000
     35 C31          3.8960    -6.5260    -1.0830 ca         1 AG0       0.438100
     36 C36          3.5770    -7.5960    -2.0950 c3         1 AG0      -0.128200
     37 C37          4.6520    -8.6830    -2.0430 c3         1 AG0      -0.083100
     38 H1           1.7810    -0.4780     3.2970 hc         1 AG0       0.087200
     39 H1A          0.2580    -0.6110     2.4060 hc         1 AG0       0.087200
     40 H7          -1.3770     6.3380     3.8380 ha         1 AG0       0.161000
     41 H12         -2.9070     3.3730     2.6670 hc         1 AG0       0.067033
     42 H12A        -2.1920     4.3040     1.3440 hc         1 AG0       0.067033
     43 H12B        -2.9970     5.1400     2.6790 hc         1 AG0       0.067033
     44 H11          0.1780     6.9490     6.0480 hc         1 AG0       0.061367
     45 H11A         1.8780     6.5900     5.7180 hc         1 AG0       0.061367
     46 H11B         0.9480     7.5820     4.5860 hc         1 AG0       0.061367
     47 H14          4.2250     1.0870    -0.3410 hc         1 AG0       0.078200
     48 H14A         4.9660    -0.4760     0.0530 hc         1 AG0       0.078200
     49 H27          4.8240    -0.9300    -2.5330 hc         1 AG0       0.066700
     50 H23          3.2980     1.6450    -2.2770 hc         1 AG0       0.052950
     51 H23A         5.0280     1.3890    -2.6010 hc         1 AG0       0.052950
     52 H26          3.0970    -2.0390    -3.7760 hc         1 AG0       0.052950
     53 H26A         1.9130    -0.7420    -3.4420 hc         1 AG0       0.052950
     54 H25          2.6790    -0.1500    -5.6410 hc         1 AG0       0.044700
     55 H25A         4.3530    -0.6530    -5.2800 hc         1 AG0       0.044700
     56 H24          2.9140     1.8700    -4.5110 hc         1 AG0       0.044700
     57 H24A         4.6440     1.6150    -4.8350 hc         1 AG0       0.044700
     58 H21          2.3610    -2.5600    -1.5520 hc         1 AG0       0.068700
     59 H21A         2.6600    -2.2370     0.1610 hc         1 AG0       0.068700
     60 H22          5.1170    -2.2840    -0.3010 hc         1 AG0       0.053200
     61 H22A         4.7640    -2.7230    -1.9780 hc         1 AG0       0.053200
     62 H30          3.8510    -4.9430    -2.5300 ha         1 AG0       0.138500
     63 H28          4.8820    -3.9140     1.4870 ha         1 AG0       0.138500
     64 H34          5.4390    -7.0200     2.5960 hc         1 AG0       0.052950
     65 H34A         4.7020    -5.5130     3.1550 hc         1 AG0       0.052950
     66 H35          3.3550    -8.1630     2.5890 hc         1 AG0       0.039200
     67 H35A         3.3420    -7.2230     4.0880 hc         1 AG0       0.039200
     68 H35B         2.4360    -6.6540     2.6790 hc         1 AG0       0.039200
     69 H36          2.6110    -8.0310    -1.8670 hc         1 AG0       0.052950
     70 H36A         3.5510    -7.1590    -3.0860 hc         1 AG0       0.052950
     71 H37          4.5040    -9.2950    -1.1620 hc         1 AG0       0.039200
     72 H37A         4.5810    -9.3030    -2.9290 hc         1 AG0       0.039200
     73 H37B         5.6310    -8.2210    -2.0030 hc         1 AG0       0.039200
     74 H38          4.5890     0.6930     2.4030 ho         1 AG0       0.438000
@<TRIPOS>BOND
     1     2     1 2
     2     2    18 1
     3     3     2 1
     4     3     4 2
     5     4    20 1
     6     5     4 1
     7     5    74 1
     8     6     3 1
     9     6    38 1
    10     6    39 1
    11     7     6 1
    12     8     7 2
    13     9     7 1
    14    10     9 2
    15    10    11 1
    16    11     8 1
    17    12    11 1
    18    12    14 1
    19    13    12 2
    20    13    40 1
    21    14    41 1
    22    14    42 1
    23    14    43 1
    24    15    10 1
    25    16    13 1
    26    16    15 2
    27    17    16 1
    28    17    44 1
    29    17    45 1
    30    17    46 1
    31    18    19 1
    32    19    21 1
    33    19    26 1
    34    20    19 1
    35    20    47 1
    36    20    48 1
    37    21    22 1
    38    21    49 1
    39    22    50 1
    40    22    51 1
    41    23    21 1
    42    23    24 1
    43    23    52 1
    44    23    53 1
    45    24    25 1
    46    24    54 1
    47    24    55 1
    48    25    22 1
    49    25    56 1
    50    25    57 1
    51    26    27 1
    52    26    58 1
    53    26    59 1
    54    27    28 1
    55    27    60 1
    56    27    61 1
    57    28    29 ar
    58    28    30 ar
    59    29    35 ar
    60    29    62 1
    61    30    31 ar
    62    30    63 1
    63    31    34 ar
    64    31    32 1
    65    32    33 1
    66    32    64 1
    67    32    65 1
    68    33    66 1
    69    33    67 1
    70    33    68 1
    71    35    34 ar
    72    35    36 1
    73    36    69 1
    74    36    70 1
    75    37    36 1
    76    37    71 1
    77    37    72 1
    78    37    73 1
@<TRIPOS>SUBSTRUCTURE
     1 AG0         1 TEMP              0 ****  ****    0 ROOT
