@<TRIPOS>MOLECULE
AG0
   74    78     1     0     0
SMALL
bcc


@<TRIPOS>ATOM
      1 O19        -0.0640    0.0580   -0.8830 o         1 AG0     -0.577500
      2 C17         1.0770   -0.0480   -0.4300 c         1 AG0      0.737800
      3 C18         1.4990    0.0620    0.9690 ce        1 AG0     -0.249400
      4 C13         2.8260    0.0750    1.2520 c2        1 AG0      0.165900
      5 O20         3.2420    0.0940    2.5550 oh        1 AG0     -0.475100
      6 C1          0.4400    0.1950    2.0010 c3        1 AG0     -0.014500
      7 C9          0.2840    1.6080    2.4740 cc        1 AG0      0.538300
      8 N8         -0.9000    2.0950    2.9880 nd        1 AG0     -0.577100
      9 N10         1.3340    2.5420    2.4560 nc        1 AG0     -0.365300
     10 C4          0.7760    3.6780    2.9850 cd        1 AG0      0.397500
     11 N5         -0.6240    3.3650    3.3100 na        1 AG0      0.012200
     12 C6         -1.4360    4.3490    3.8580 cc        1 AG0      0.070400
     13 C7         -0.8680    5.5910    4.0790 cd        1 AG0     -0.324300
     14 C12        -2.8580    4.0560    4.1850 c3        1 AG0     -0.065800
     15 N3          1.3220    4.9300    3.2180 nd        1 AG0     -0.633000
     16 C2          0.5110    5.8420    3.7470 cc        1 AG0      0.467600
     17 C11         1.0210    7.2210    4.0290 c3        1 AG0     -0.157400
     18 O16         2.0060   -0.2570   -1.4290 os        1 AG0     -0.419900
     19 C15         3.3300   -0.7000   -1.0660 c3        1 AG0      0.180800
     20 C14         3.8480    0.0460    0.1690 c3        1 AG0     -0.121200
     21 C27         4.2230   -0.3830   -2.2760 c3        1 AG0     -0.057700
     22 C23         4.2400    1.0990   -2.6560 c3        1 AG0     -0.077900
     23 C26         3.7920   -1.1220   -3.5450 c3        1 AG0     -0.077900
     24 C25         4.1960   -0.2380   -4.7170 c3        1 AG0     -0.076400
     25 C24         4.4310    1.1630   -4.1660 c3        1 AG0     -0.076400
     26 C21         3.2350   -2.2110   -0.8030 c3        1 AG0     -0.105400
     27 C22         4.5700   -2.9100   -0.6480 c3        1 AG0     -0.037100
     28 C29         4.3820   -4.3610   -0.3710 ca        1 AG0     -0.040300
     29 C30         3.9650   -5.2290   -1.3850 ca        1 AG0     -0.249800
     30 C28         4.6310   -4.8900    0.8980 ca        1 AG0     -0.249800
     31 C33         4.4520   -6.2750    1.1120 ca        1 AG0      0.421100
     32 C34         4.7250   -6.8330    2.4820 c3        1 AG0     -0.129200
     33 C35         3.4590   -7.2910    3.1620 c3        1 AG0     -0.089100
     34 N32         4.0490   -7.1200    0.1340 nb        1 AG0     -0.668000
     35 C31         3.8090   -6.6010   -1.0940 ca        1 AG0      0.421100
     36 C36         3.3540   -7.5240   -2.1920 c3        1 AG0     -0.129200
     37 C37         4.4390   -8.4890   -2.6010 c3        1 AG0     -0.089100
     38 H1         -0.5410   -0.1690    1.5850 hc        1 AG0      0.086700
     39 H1A         0.7030   -0.4370    2.8960 hc        1 AG0      0.086700
     40 H7         -1.4690    6.4020    4.5110 ha        1 AG0      0.160000
     41 H12        -3.4130    3.7450    3.2630 hc        1 AG0      0.070033
     42 H12A       -2.9240    3.2220    4.9280 hc        1 AG0      0.070033
     43 H12B       -3.3460    4.9650    4.6140 hc        1 AG0      0.070033
     44 H11         0.9030    7.4380    5.1190 hc        1 AG0      0.062700
     45 H11A        2.0970    7.3440    3.7530 hc        1 AG0      0.062700
     46 H11B        0.4150    7.9580    3.4460 hc        1 AG0      0.062700
     47 H14         4.0910    1.1100   -0.1100 hc        1 AG0      0.082200
     48 H14A        4.7940   -0.4390    0.5250 hc        1 AG0      0.082200
     49 H27         5.2650   -0.6980   -1.9960 hc        1 AG0      0.049700
     50 H23         5.0620    1.6370   -2.1240 hc        1 AG0      0.051950
     51 H23A        3.2690    1.5790   -2.3690 hc        1 AG0      0.051950
     52 H26         2.6820   -1.2710   -3.5380 hc        1 AG0      0.051950
     53 H26A        4.2750   -2.1280   -3.6050 hc        1 AG0      0.051950
     54 H25         5.1280   -0.6290   -5.1980 hc        1 AG0      0.042200
     55 H25A        3.3960   -0.2320   -5.4970 hc        1 AG0      0.042200
     56 H24         5.4650    1.5120   -4.4160 hc        1 AG0      0.042200
     57 H24A        3.7150    1.8920   -4.6180 hc        1 AG0      0.042200
     58 H21         2.6740   -2.6750   -1.6600 hc        1 AG0      0.066700
     59 H21A        2.6190   -2.3650    0.1230 hc        1 AG0      0.066700
     60 H22         5.1600   -2.4400    0.1830 hc        1 AG0      0.051700
     61 H22A        5.1700   -2.7970   -1.5920 hc        1 AG0      0.051700
     62 H30         3.7600   -4.8480   -2.3950 ha        1 AG0      0.141500
     63 H28         4.9580   -4.2430    1.7230 ha        1 AG0      0.141500
     64 H34         5.4410   -7.6950    2.3990 hc        1 AG0      0.053200
     65 H34A        5.2240   -6.0420    3.1030 hc        1 AG0      0.053200
     66 H35         3.6950   -7.6670    4.1880 hc        1 AG0      0.040033
     67 H35A        2.7300   -6.4500    3.2520 hc        1 AG0      0.040033
     68 H35B        2.9750   -8.1160    2.5850 hc        1 AG0      0.040033
     69 H36         3.0420   -6.9080   -3.0770 hc        1 AG0      0.053200
     70 H36A        2.4510   -8.0960   -1.8470 hc        1 AG0      0.053200
     71 H37         4.7240   -9.1490   -1.7470 hc        1 AG0      0.040033
     72 H37A        4.0770   -9.1310   -3.4400 hc        1 AG0      0.040033
     73 H37B        5.3500   -7.9410   -2.9420 hc        1 AG0      0.040033
     74 H38         4.1440    0.4500    2.5770 ho        1 AG0      0.430000
@<TRIPOS>BOND
     1    1    2 2   
     2    2    3 1   
     3    2   18 1   
     4    3    4 2   
     5    3    6 1   
     6    4    5 1   
     7    4   20 1   
     8    5   74 1   
     9    6    7 1   
    10    6   38 1   
    11    6   39 1   
    12    7    8 2   
    13    7    9 1   
    14    8   11 1   
    15    9   10 2   
    16   10   11 1   
    17   10   15 1   
    18   11   12 1   
    19   12   13 2   
    20   12   14 1   
    21   13   16 1   
    22   13   40 1   
    23   14   41 1   
    24   14   42 1   
    25   14   43 1   
    26   15   16 2   
    27   16   17 1   
    28   17   44 1   
    29   17   45 1   
    30   17   46 1   
    31   18   19 1   
    32   19   20 1   
    33   19   21 1   
    34   19   26 1   
    35   20   47 1   
    36   20   48 1   
    37   21   22 1   
    38   21   23 1   
    39   21   49 1   
    40   22   25 1   
    41   22   50 1   
    42   22   51 1   
    43   23   24 1   
    44   23   52 1   
    45   23   53 1   
    46   24   25 1   
    47   24   54 1   
    48   24   55 1   
    49   25   56 1   
    50   25   57 1   
    51   26   27 1   
    52   26   58 1   
    53   26   59 1   
    54   27   28 1   
    55   27   60 1   
    56   27   61 1   
    57   28   29 ar  
    58   28   30 ar  
    59   29   35 ar  
    60   29   62 1   
    61   30   31 ar  
    62   30   63 1   
    63   31   32 1   
    64   31   34 ar  
    65   32   33 1   
    66   32   64 1   
    67   32   65 1   
    68   33   66 1   
    69   33   67 1   
    70   33   68 1   
    71   34   35 ar  
    72   35   36 1   
    73   36   37 1   
    74   36   69 1   
    75   36   70 1   
    76   37   71 1   
    77   37   72 1   
    78   37   73 1   
@<TRIPOS>SUBSTRUCTURE
     1 AG0         1 TEMP              0 ****  ****    0 ROOT
