@<TRIPOS>MOLECULE
molecule
   25    24     1     0     0
SMALL
bcc


@<TRIPOS>ATOM
      1 N            0.0000     0.0000     0.0000 nz         1 AG2      -0.809600
      2 CA           1.4690     0.0000     0.0000 c3         1 AG2       0.096800
      3 CB           1.9810     0.0000     1.4400 c3         1 AG2      -0.107400
      4 CG           3.5100    -0.0000     1.4400 c3         1 AG2      -0.099400
      5 CD           4.0210    -0.0000     2.8810 c3         1 AG2       0.256800
      6 NE           5.4860     0.0010     2.8800 nu         1 AG2      -0.869200
      7 CZ           6.1750    -0.0000     4.0690 c2         1 AG2       0.694100
      8 NH1          5.5250    -0.0010     5.1990 n2         1 AG2      -0.771100
      9 NH2          7.5490     0.0000     4.0690 nz         1 AG2      -0.806600
     10 HN1         -0.3340    -0.0000    -0.9440 hn         1 AG2       0.465133
     11 HN2         -0.3340    -0.8170     0.4720 hn         1 AG2       0.465133
     12 HA1          1.8300    -0.8840    -0.5110 hx         1 AG2       0.116700
     13 HA2          1.8300     0.8840    -0.5110 hx         1 AG2       0.116700
     14 HB1          1.6200    -0.8840     1.9520 hc         1 AG2       0.076700
     15 HB2          1.6200     0.8850     1.9520 hc         1 AG2       0.076700
     16 HG1          3.8710    -0.8850     0.9290 hc         1 AG2       0.068700
     17 HG2          3.8710     0.8840     0.9290 hc         1 AG2       0.068700
     18 HD1          3.6610    -0.8850     3.3920 h1         1 AG2       0.079700
     19 HD2          3.6600     0.8840     3.3920 h1         1 AG2       0.079700
     20 HE1          5.9850    -0.0020     2.0130 hn         1 AG2       0.458800
     21 HH11         6.0250    -0.0010     6.0660 hn         1 AG2       0.454400
     22 HH21         7.8830     0.5630     3.3110 hn         1 AG2       0.474467
     23 HH22         7.8830    -0.9370     3.9600 hn         1 AG2       0.474467
     24 HN3         -0.3340     0.8020     0.4960 hn         1 AG2       0.465133
     25 HH23         7.8830     0.3550     4.9430 hn         1 AG2       0.474467
@<TRIPOS>BOND
     1     1     2 1
     2     1    10 1
     3     1    11 1
     4     2     3 1
     5     2    12 1
     6     2    13 1
     7     3     4 1
     8     3    14 1
     9     3    15 1
    10     4     5 1
    11     4    16 1
    12     4    17 1
    13     5     6 1
    14     5    18 1
    15     5    19 1
    16     6     7 1
    17     6    20 1
    18     7     8 2
    19     7     9 1
    20     8    21 1
    21     9    22 1
    22     9    23 1
    23    24     1 1
    24    25     9 1
@<TRIPOS>SUBSTRUCTURE
     1 AG2         1 TEMP              0 ****  ****    0 ROOT
