@<TRIPOS>MOLECULE
AG3
   36    35     1     0     0
SMALL
bcc


@<TRIPOS>ATOM
      1 N            0.0000     0.0000     0.0000 n7         1 AG3      -0.594200
      2 CA           1.4560     0.0000     0.0000 c3         1 AG3       0.152800
      3 CB           2.0190     0.0000     1.4150 c3         1 AG3      -0.016400
      4 CG           3.5510    -0.0260     1.4270 c3         1 AG3      -0.020400
      5 CD           4.1250    -0.0070     2.8400 c3         1 AG3       0.162800
      6 NE           5.5610    -0.0540     2.8500 nu         1 AG3      -0.516200
      7 CZ           6.3920    -0.0360     3.9550 c2         1 AG3       0.257100
      8 NH1          5.7860     0.0330     5.1850 nz         1 AG3       0.187400
      9 NH2          7.6930    -0.0820     3.8320 n2         1 AG3      -0.572100
     10 C7          -0.5230    -0.0110    -1.3600 c3         1 AG3       0.154800
     11 C8          -2.0490    -0.0230    -1.4020 c3         1 AG3      -0.015400
     12 C9          -2.6740    -1.2470    -0.7350 c3         1 AG3      -0.076200
     13 N10         -4.1110    -1.2160    -0.7630 nz         1 AG3       0.113400
     14 HN          -0.3340     0.8130     0.4790 hn         1 AG3       0.256800
     15 HA1          1.8090     0.8820    -0.5200 h1         1 AG3       0.018700
     16 HA2          1.8090    -0.8820    -0.5200 h1         1 AG3       0.018700
     17 HB1          1.6490    -0.8720     1.9410 hc         1 AG3       0.021200
     18 HB2          1.6790     0.8910     1.9290 hc         1 AG3       0.021200
     19 HG1          3.9200     0.8380     0.8880 hc         1 AG3       0.032700
     20 HG2          3.8900    -0.9240     0.9240 hc         1 AG3       0.032700
     21 HD1          3.8010     0.8990     3.3380 h1         1 AG3       0.009700
     22 HD2          3.7440    -0.8620     3.3850 h1         1 AG3       0.009700
     23 HNE          6.0100    -0.1050     1.9570 hn         1 AG3       0.328800
     24 HH11         5.2450     0.8730     5.2440 hn         1 AG3       0.226133
     25 HH12         6.4850     0.0350     5.9010 hn         1 AG3       0.226133
     26 HNH2         8.1090    -0.1310     2.9230 hn         1 AG3       0.380400
     27 H71         -0.1520    -0.8920    -1.8700 h1         1 AG3       0.031200
     28 H72         -0.1660     0.8700    -1.8790 h1         1 AG3       0.031200
     29 H81         -2.4150     0.8660    -0.9030 hc         1 AG3       0.032700
     30 H82         -2.3660     0.0050    -2.4370 hc         1 AG3       0.032700
     31 H91         -2.3330    -2.1380    -1.2490 hx         1 AG3       0.090200
     32 H92         -2.3450    -1.2900     0.2960 hx         1 AG3       0.090200
     33 H101        -4.4260    -1.1830    -1.7130 hn         1 AG3       0.221800
     34 H102        -4.4370    -0.4060    -0.2750 hn         1 AG3       0.221800
     35 HH13         5.1800    -0.7550     5.3020 hn         1 AG3       0.226133
     36 H103        -4.4710    -2.0470    -0.3360 hn         1 AG3       0.221800
@<TRIPOS>BOND
     1     1     2 1   
     2     1    10 1   
     3     1    14 1   
     4     2     3 1   
     5     2    15 1   
     6     2    16 1   
     7     3     4 1   
     8     3    17 1   
     9     3    18 1   
    10     4     5 1   
    11     4    19 1   
    12     4    20 1   
    13     5     6 1   
    14     5    21 1   
    15     5    22 1   
    16     6     7 1   
    17     6    23 1   
    18     7     8 1   
    19     7     9 2   
    20     8    24 1   
    21     8    25 1   
    22     8    35 1   
    23     9    26 1   
    24    10    11 1   
    25    10    27 1   
    26    10    28 1   
    27    11    12 1   
    28    11    29 1   
    29    11    30 1   
    30    12    13 1   
    31    12    31 1   
    32    12    32 1   
    33    13    33 1   
    34    13    34 1   
    35    13    36 1   
@<TRIPOS>SUBSTRUCTURE
     1 AG3         1 TEMP              0 ****  ****    0 ROOT
