@<TRIPOS>MOLECULE
molecule
   36    35     1     0     0
SMALL
bcc


@<TRIPOS>ATOM
      1 N            0.0000     0.0000     0.0000 n7         1 AG3      -0.837200
      2 CA           1.4560     0.0000     0.0000 c3         1 AG3       0.165800
      3 CB           2.0190     0.0000     1.4150 c3         1 AG3      -0.076400
      4 CG           3.5510    -0.0260     1.4270 c3         1 AG3      -0.088400
      5 CD           4.1250    -0.0070     2.8400 c3         1 AG3       0.225800
      6 NE           5.5610    -0.0540     2.8500 nu         1 AG3      -0.875200
      7 CZ           6.3920    -0.0360     3.9550 c2         1 AG3       0.704100
      8 NH1          5.7860     0.0330     5.1850 nz         1 AG3      -0.807600
      9 NH2          7.6930    -0.0820     3.8320 n2         1 AG3      -0.756100
     10 C7          -0.5230    -0.0110    -1.3600 c3         1 AG3       0.167800
     11 C8          -2.0490    -0.0230    -1.4020 c3         1 AG3      -0.099400
     12 C9          -2.6740    -1.2470    -0.7350 c3         1 AG3       0.079800
     13 N10         -4.1110    -1.2160    -0.7630 nz         1 AG3      -0.797600
     14 HN          -0.3340     0.8130     0.4790 hn         1 AG3       0.358800
     15 HA1          1.8090    -0.8820    -0.5200 h1         1 AG3       0.047700
     16 HA2          1.8090     0.8820    -0.5200 h1         1 AG3       0.047700
     17 HB1          1.6490    -0.8720     1.9410 hc         1 AG3       0.052700
     18 HB2          1.6790     0.8910     1.9290 hc         1 AG3       0.052700
     19 HG1          3.8900    -0.9240     0.9240 hc         1 AG3       0.068700
     20 HG2          3.9200     0.8380     0.8880 hc         1 AG3       0.068700
     21 HD1          3.8010     0.8990     3.3380 h1         1 AG3       0.035700
     22 HD2          3.7440    -0.8620     3.3850 h1         1 AG3       0.035700
     23 HNE          6.0100    -0.1050     1.9570 hn         1 AG3       0.495800
     24 HH11         5.1850    -0.7590     5.3050 hn         1 AG3       0.468800
     25 HH12         5.2460     0.8730     5.2450 hn         1 AG3       0.468800
     26 HNH2         8.2750    -0.0670     4.6470 hn         1 AG3       0.452400
     27 H71         -0.1660     0.8700    -1.8790 h1         1 AG3       0.062700
     28 H72         -0.1520    -0.8920    -1.8700 h1         1 AG3       0.062700
     29 H81         -2.4150     0.8660    -0.9030 hc         1 AG3       0.066200
     30 H82         -2.3660     0.0050    -2.4370 hc         1 AG3       0.066200
     31 H91         -2.3330    -2.1380    -1.2490 hx         1 AG3       0.116700
     32 H92         -2.3450    -1.2900     0.2960 hx         1 AG3       0.116700
     33 H101        -4.4710    -2.0390    -0.3220 hn         1 AG3       0.459800
     34 H102        -4.4370    -0.4060    -0.2750 hn         1 AG3       0.459800
     35 HH13         6.4840     0.0250     5.9020 hn         1 AG3       0.468800
     36 H103        -4.4260    -1.1790    -1.7130 hn         1 AG3       0.459800
@<TRIPOS>BOND
     1    13    12 1
     2    12    11 1
     3    11    10 1
     4    10     1 1
     5     1     2 1
     6     2     3 1
     7     3     4 1
     8     4     5 1
     9     5     6 1
    10     6     7 1
    11     7     8 1
    12     7     9 2
    13     1    14 1
    14     2    15 1
    15     2    16 1
    16     3    17 1
    17     3    18 1
    18     4    19 1
    19     4    20 1
    20     5    21 1
    21     5    22 1
    22     6    23 1
    23     8    24 1
    24     8    25 1
    25     9    26 1
    26    10    27 1
    27    10    28 1
    28    11    29 1
    29    11    30 1
    30    12    31 1
    31    12    32 1
    32    13    33 1
    33    13    34 1
    34    35     8 1
    35    36    13 1
@<TRIPOS>SUBSTRUCTURE
     1 AG3         1 TEMP              0 ****  ****    0 ROOT
