@<TRIPOS>MOLECULE
AG4
   45    46     1     0     0
SMALL
bcc


@<TRIPOS>ATOM
      1 O14          0.0000     0.0000     0.0000 o          1 AG4      -0.602100
      2 C1           1.2380     0.0000     0.0000 c          1 AG4       0.564700
      3 N15          1.9430     0.0000     1.1250 ns         1 AG4      -0.145900
      4 C16          1.2780     0.2600     2.4120 c3         1 AG4       0.024000
      5 C17          1.3260     1.7050     2.9740 c3         1 AG4      -0.049400
      6 C19          0.8040     2.8450     2.0670 c3         1 AG4       0.229400
      7 O18         -0.6370     2.7670     1.9560 os         1 AG4      -0.406600
      8 C20         -1.1640     2.9040     0.6280 c3         1 AG4       0.254700
      9 C6           1.9140     0.1660    -1.3260 ca         1 AG4      -0.250900
     10 C7           2.7340     1.2830    -1.4620 ca         1 AG4       0.030000
     11 C5           1.6620    -0.7240    -2.3960 ca         1 AG4       0.638600
     12 N4           2.2530    -0.5090    -3.6050 nb         1 AG4      -0.621000
     13 C3           3.0520     0.5680    -3.7670 ca         1 AG4       0.645200
     14 C2           3.3020     1.4870    -2.7100 ca         1 AG4      -0.458800
     15 S8           4.2880     2.7080    -3.0080 sy         1 AG4       0.716200
     16 O12          3.6870     3.4870    -4.2010 o          1 AG4      -0.406800
     17 O11          5.6210     2.0470    -3.3730 o          1 AG4      -0.406800
     18 N9           4.4360     3.7440    -1.6960 nz         1 AG4      -0.074500
     19 S10          0.6340    -2.0710    -2.1290 ss         1 AG4      -0.179200
     20 C13          0.6120    -3.0290    -3.5450 ca         1 AG4      -0.061100
     21 C21          1.6350    -3.9660    -3.7870 ca         1 AG4      -0.014000
     22 C22          1.6180    -4.7640    -4.9260 ca         1 AG4      -0.112500
     23 C23          0.5640    -4.6420    -5.8310 ca         1 AG4      -0.031000
     24 C24         -0.4740    -3.7360    -5.5830 ca         1 AG4      -0.112500
     25 C25         -0.4570    -2.9310    -4.4340 ca         1 AG4      -0.014000
     26 HN15         2.9280    -0.1750     1.0970 hn         1 AG4       0.164500
     27 H16          0.2360    -0.0170     2.3060 h1         1 AG4       0.049200
     28 H16A         1.7230    -0.3950     3.1510 h1         1 AG4       0.049200
     29 H17          0.7500     1.7220     3.8910 hc         1 AG4       0.026200
     30 H17A         2.3570     1.9280     3.2230 hc         1 AG4       0.026200
     31 H19          1.0790     3.8010     2.4970 h1         1 AG4      -0.021800
     32 H19A         1.2460     2.7530     1.0830 h1         1 AG4      -0.021800
     33 H20         -1.8910     3.7070     0.6090 h1         1 AG4      -0.008633
     34 H20A        -1.6410     1.9780     0.3310 h1         1 AG4      -0.008633
     35 H20B        -0.3570     3.1320    -0.0580 h1         1 AG4      -0.008633
     36 H7           2.9060     1.9660    -0.6390 ha         1 AG4       0.087000
     37 H3           3.5120     0.7400    -4.7320 h4         1 AG4       0.011100
     38 HN9          4.7990     3.2390    -0.9120 hn         1 AG4       0.306800
     39 HN9A         3.5380     4.1200    -1.4650 hn         1 AG4       0.306800
     40 H21          2.4530    -4.0580    -3.0820 ha         1 AG4       0.114500
     41 H22          2.4160    -5.4730    -5.1090 ha         1 AG4       0.119000
     42 H23          0.5410    -5.2600    -6.7210 ha         1 AG4       0.113000
     43 H24         -1.2970    -3.6550    -6.2830 ha         1 AG4       0.119000
     44 H25         -1.2620    -2.2320    -4.2460 ha         1 AG4       0.114500
     45 H93          5.0750     4.4800    -1.9240 hn         1 AG4       0.306800
@<TRIPOS>BOND
     1     1     2 2   
     2     2     3 1   
     3     2     9 1   
     4     3     4 1   
     5     3    26 1   
     6     4     5 1   
     7     4    27 1   
     8     4    28 1   
     9     5     6 1   
    10     5    29 1   
    11     5    30 1   
    12     6     7 1   
    13     6    31 1   
    14     6    32 1   
    15     7     8 1   
    16     8    33 1   
    17     8    34 1   
    18     8    35 1   
    19     9    10 ar  
    20     9    11 ar  
    21    10    14 ar  
    22    10    36 1   
    23    11    12 ar  
    24    11    19 1   
    25    12    13 ar  
    26    13    14 ar  
    27    13    37 1   
    28    14    15 1   
    29    15    16 2   
    30    15    17 2   
    31    15    18 1   
    32    18    38 1   
    33    18    39 1   
    34    18    45 1   
    35    19    20 1   
    36    20    21 ar  
    37    20    25 ar  
    38    21    22 ar  
    39    21    40 1   
    40    22    23 ar  
    41    22    41 1   
    42    23    24 ar  
    43    23    42 1   
    44    24    25 ar  
    45    24    43 1   
    46    25    44 1   
@<TRIPOS>SUBSTRUCTURE
     1 AG4         1 TEMP              0 ****  ****    0 ROOT
