@<TRIPOS>MOLECULE
molecule
   45    46     1     0     0
SMALL
bcc


@<TRIPOS>ATOM
      1 O14          0.0000     0.0000     0.0000 o          1 AG4      -0.572100
      2 C1           1.2380     0.0000     0.0000 c          1 AG4       0.649700
      3 N15          1.9430     0.0000     1.1250 ns         1 AG4      -0.559900
      4 C16          1.2780     0.2600     2.4120 c3         1 AG4       0.093000
      5 C17          1.3260     1.7050     2.9740 c3         1 AG4      -0.109400
      6 C19          0.8040     2.8450     2.0670 c3         1 AG4       0.152400
      7 O18         -0.6370     2.7670     1.9560 os         1 AG4      -0.421600
      8 C20         -1.1640     2.9040     0.6280 c3         1 AG4       0.133700
      9 C6           1.9140     0.1660    -1.3260 ca         1 AG4      -0.253900
     10 C7           2.7340     1.2830    -1.4620 ca         1 AG4       0.000000
     11 C5           1.6620    -0.7240    -2.3960 ca         1 AG4       0.576600
     12 N4           2.2530    -0.5090    -3.6050 nb         1 AG4      -0.675000
     13 C3           3.0520     0.5680    -3.7670 ca         1 AG4       0.613200
     14 C2           3.3020     1.4870    -2.7100 ca         1 AG4      -0.597800
     15 S8           4.2880     2.7080    -3.0080 sy         1 AG4       1.028200
     16 O12          3.6870     3.4870    -4.2010 o          1 AG4      -0.431300
     17 O11          5.6210     2.0470    -3.3730 o          1 AG4      -0.431300
     18 N9           4.4360     3.7440    -1.6960 nz         1 AG4      -0.768500
     19 S10          0.6340    -2.0710    -2.1290 ss         1 AG4       0.028800
     20 C13          0.6120    -3.0290    -3.5450 ca         1 AG4      -0.127100
     21 C21          1.6350    -3.9660    -3.7870 ca         1 AG4      -0.049000
     22 C22          1.6180    -4.7640    -4.9260 ca         1 AG4      -0.138500
     23 C23          0.5640    -4.6420    -5.8310 ca         1 AG4      -0.065000
     24 C24         -0.4740    -3.7360    -5.5830 ca         1 AG4      -0.138500
     25 C25         -0.4570    -2.9310    -4.4340 ca         1 AG4      -0.049000
     26 HN15         2.9280    -0.1750     1.0970 hn         1 AG4       0.315500
     27 H16          0.2360    -0.0170     2.3060 h1         1 AG4       0.079200
     28 H16A         1.7230    -0.3950     3.1510 h1         1 AG4       0.079200
     29 H17          0.7500     1.7220     3.8910 hc         1 AG4       0.060700
     30 H17A         2.3570     1.9280     3.2230 hc         1 AG4       0.060700
     31 H19          1.0790     3.8010     2.4970 h1         1 AG4       0.015200
     32 H19A         1.2460     2.7530     1.0830 h1         1 AG4       0.015200
     33 H20         -1.8910     3.7070     0.6090 h1         1 AG4       0.034033
     34 H20A        -1.6410     1.9780     0.3310 h1         1 AG4       0.034033
     35 H20B        -0.3570     3.1320    -0.0580 h1         1 AG4       0.034033
     36 H7           2.9060     1.9660    -0.6390 ha         1 AG4       0.118000
     37 H3           3.5120     0.7400    -4.7320 h4         1 AG4       0.064100
     38 HN9          4.7990     3.2390    -0.9120 hn         1 AG4       0.487800
     39 HN9A         3.5380     4.1200    -1.4650 hn         1 AG4       0.487800
     40 H21          2.4530    -4.0580    -3.0820 ha         1 AG4       0.143500
     41 H22          2.4160    -5.4730    -5.1090 ha         1 AG4       0.150500
     42 H23          0.5410    -5.2600    -6.7210 ha         1 AG4       0.149000
     43 H24         -1.2970    -3.6550    -6.2830 ha         1 AG4       0.150500
     44 H25         -1.2620    -2.2320    -4.2460 ha         1 AG4       0.143500
     45 H93          5.0750     4.4800    -1.9240 hn         1 AG4       0.487800
@<TRIPOS>BOND
     1     1     2 2
     2     2     3 1
     3     2     9 1
     4     3     4 1
     5     4     5 1
     6     5     6 1
     7     6     7 1
     8     7     8 1
     9     9    10 ar
    10     9    11 ar
    11    10    14 ar
    12    11    12 ar
    13    11    19 1
    14    12    13 ar
    15    13    14 ar
    16    14    15 1
    17    15    16 2
    18    15    17 2
    19    15    18 1
    20    19    20 1
    21    20    21 ar
    22    20    25 ar
    23    21    22 ar
    24    22    23 ar
    25    23    24 ar
    26    24    25 ar
    27     3    26 1
    28     4    27 1
    29     4    28 1
    30     5    29 1
    31     5    30 1
    32     6    31 1
    33     6    32 1
    34     8    33 1
    35     8    34 1
    36     8    35 1
    37    10    36 1
    38    13    37 1
    39    18    38 1
    40    18    39 1
    41    21    40 1
    42    22    41 1
    43    23    42 1
    44    24    43 1
    45    25    44 1
    46    45    18 1
@<TRIPOS>SUBSTRUCTURE
     1 AG4         1 TEMP              0 ****  ****    0 ROOT
