@<TRIPOS>MOLECULE
AG5
   48    50     1     0     0
SMALL
bcc


@<TRIPOS>ATOM
      1 O14          0.0000     0.0000     0.0000 o          1 AG5      -0.587100
      2 C1           1.2160     0.0000     0.0000 c          1 AG5       0.578700
      3 N15          1.8900     0.0000     1.1680 ns         1 AG5      -0.185900
      4 C16          1.1580    -0.0020     2.4370 c3         1 AG5       0.047000
      5 C17          2.1520    -0.0030     3.6000 c3         1 AG5       0.026900
      6 C18          1.3980    -0.0050     4.9050 ca         1 AG5      -0.107300
      7 C24          1.0530    -1.2020     5.5020 ca         1 AG5      -0.093500
      8 C25          0.3620    -1.2050     6.6990 ca         1 AG5      -0.091000
      9 C26          0.0160    -0.0090     7.2990 ca         1 AG5      -0.088000
     10 C27          0.3620     1.1900     6.7020 ca         1 AG5      -0.091000
     11 C28          1.0570     1.1910     5.5070 ca         1 AG5      -0.093500
     12 C6           1.9540    -0.0040    -1.2760 ca         1 AG5      -0.270900
     13 C7           3.3530    -0.0030    -1.2910 ca         1 AG5       0.067000
     14 C5           1.2630    -0.0150    -2.5010 ca         1 AG5       0.636600
     15 N4           1.9320    -0.0190    -3.6460 nb         1 AG5      -0.598000
     16 C3           3.2490    -0.0140    -3.6790 ca         1 AG5       0.554200
     17 C2           3.9970    -0.0080    -2.5150 ca         1 AG5      -0.398800
     18 S8           5.7570    -0.0060    -2.5910 sy         1 AG5       0.943200
     19 O11          6.1030     0.5340    -3.8600 o          1 AG5      -0.496800
     20 O12          6.2110     0.5450    -1.3630 o          1 AG5      -0.496800
     21 N9           6.2500    -1.5870    -2.6060 nz         1 AG5      -0.131500
     22 S10         -0.4980    -0.0240    -2.5150 ss         1 AG5      -0.182200
     23 C13         -0.7920     0.1200    -4.2460 ca         1 AG5      -0.046100
     24 C19         -1.0010    -1.0180    -5.0140 ca         1 AG5      -0.028000
     25 C20         -1.2320    -0.9020    -6.3710 ca         1 AG5      -0.114000
     26 C21         -1.2530     0.3470    -6.9650 ca         1 AG5      -0.047000
     27 C22         -1.0440     1.4830    -6.2040 ca         1 AG5      -0.114000
     28 C23         -0.8190     1.3740    -4.8460 ca         1 AG5      -0.028000
     29 HN15         2.8910     0.0240     1.1680 hn         1 AG5       0.166500
     30 H16          0.5350     0.8830     2.4950 h1         1 AG5       0.040200
     31 H16A         0.5350    -0.8870     2.4930 h1         1 AG5       0.040200
     32 H17          2.7750     0.8810     3.5430 hc         1 AG5       0.015700
     33 H17A         2.7750    -0.8880     3.5410 hc         1 AG5       0.015700
     34 H24          1.3250    -2.1400     5.0320 ha         1 AG5       0.102500
     35 H25          0.0920    -2.1440     7.1660 ha         1 AG5       0.108500
     36 H26         -0.5270    -0.0100     8.2360 ha         1 AG5       0.109000
     37 H27          0.0920     2.1280     7.1730 ha         1 AG5       0.108500
     38 H28          1.3280     2.1300     5.0390 ha         1 AG5       0.102500
     39 H7           3.9170     0.0020    -0.3670 ha         1 AG5       0.127000
     40 H3           3.7560    -0.0170    -4.6370 h4         1 AG5      -0.001900
     41 HN9          5.9800    -2.0280    -1.7490 hn         1 AG5       0.313467
     42 HN9A         5.8210    -2.0630    -3.3750 hn         1 AG5       0.313467
     43 H19         -0.9850    -1.9960    -4.5490 ha         1 AG5       0.112500
     44 H20         -1.3960    -1.7900    -6.9700 ha         1 AG5       0.114000
     45 H21         -1.4310     0.4350    -8.0300 ha         1 AG5       0.110000
     46 H22         -1.0630     2.4590    -6.6730 ha         1 AG5       0.114000
     47 H23         -0.6560     2.2630    -4.2500 ha         1 AG5       0.112500
     48 H93          7.2440    -1.6250    -2.7120 hn         1 AG5       0.313467
@<TRIPOS>BOND
     1     1     2 2   
     2     2     3 1   
     3     2    12 1   
     4     3     4 1   
     5     3    29 1   
     6     4     5 1   
     7     4    30 1   
     8     4    31 1   
     9     5     6 1   
    10     5    32 1   
    11     5    33 1   
    12     6     7 ar  
    13     6    11 ar  
    14     7     8 ar  
    15     7    34 1   
    16     8     9 ar  
    17     8    35 1   
    18     9    10 ar  
    19     9    36 1   
    20    10    11 ar  
    21    10    37 1   
    22    11    38 1   
    23    12    13 ar  
    24    12    14 ar  
    25    13    17 ar  
    26    13    39 1   
    27    14    15 ar  
    28    14    22 1   
    29    15    16 ar  
    30    16    17 ar  
    31    16    40 1   
    32    17    18 1   
    33    18    19 2   
    34    18    20 2   
    35    18    21 1   
    36    21    41 1   
    37    21    42 1   
    38    21    48 1   
    39    22    23 1   
    40    23    24 ar  
    41    23    28 ar  
    42    24    25 ar  
    43    24    43 1   
    44    25    26 ar  
    45    25    44 1   
    46    26    27 ar  
    47    26    45 1   
    48    27    28 ar  
    49    27    46 1   
    50    28    47 1   
@<TRIPOS>SUBSTRUCTURE
     1 AG5         1 TEMP              0 ****  ****    0 ROOT
