@<TRIPOS>MOLECULE
AG6
   83    85     1     0     0
SMALL
bcc


@<TRIPOS>ATOM
      1 N2           0.0000     0.0000     0.0000 ns         1 AG6      -0.169900
      2 N3           3.2930    -1.4430    -0.8330 ns         1 AG6      -0.195900
      3 O5          -0.0680     2.2080     0.2050 o          1 AG6      -0.675100
      4 O6           1.1800    -2.0280    -1.1710 o          1 AG6      -0.619100
      5 C7          -0.6740     1.1620     0.1070 c          1 AG6       0.573100
      6 O7           3.6150    -5.1140    -1.7940 o          1 AG6      -0.542100
      7 C8           1.4650     0.0000     0.0000 c3         1 AG6      -0.052300
      8 C9           1.9750     0.0000     1.4430 c3         1 AG6       0.018900
      9 C10          1.9680    -1.2300    -0.7110 c          1 AG6       0.564100
     10 C11          3.7810    -2.6390    -1.5240 c3         1 AG6       0.001900
     11 C12          3.8330    -2.3720    -3.0300 c3         1 AG6      -0.024400
     12 C13          2.4140    -2.1520    -3.5570 c3         1 AG6      -0.045400
     13 C14          2.4660    -1.8860    -5.0630 c3         1 AG6       0.005900
     14 C15          5.1630    -2.9770    -1.0260 c2         1 AG6      -0.054200
     15 C22          5.4560    -4.2290    -0.6750 ce         1 AG6      -0.249200
     16 C23          4.5630    -5.3290    -1.0620 c          1 AG6       0.625900
     17 C24          0.3690     1.3720     2.7870 ca         1 AG6      -0.089000
     18 C25          0.0070     2.5510     3.4100 ca         1 AG6      -0.091000
     19 C26          1.5750     1.2870     2.1160 ca         1 AG6      -0.076300
     20 C27          0.8460     3.6470     3.3580 ca         1 AG6      -0.100000
     21 C28          2.4160     2.3840     2.0650 ca         1 AG6      -0.089000
     22 C29          2.0500     3.5650     2.6830 ca         1 AG6      -0.091000
     23 C30          4.8150    -6.6970    -0.5620 ca         1 AG6      -0.177600
     24 C31          5.9000    -6.9450     0.2830 ca         1 AG6      -0.050000
     25 C32          3.9680    -7.7450    -0.9270 ca         1 AG6      -0.050000
     26 C33          6.1290    -8.2250     0.7460 ca         1 AG6      -0.119000
     27 C34          4.2090    -9.0190    -0.4570 ca         1 AG6      -0.119000
     28 C35          5.2890    -9.2590     0.3750 ca         1 AG6      -0.076000
     29 HN2         -0.5000    -0.8630    -0.0860 hn         1 AG6       0.212500
     30 HN3          3.9430    -0.7930    -0.4370 hn         1 AG6       0.168500
     31 C241        -2.1810     1.1620     0.1070 c3         1 AG6      -0.052300
     32 H8           1.8260     0.8850    -0.5100 h1         1 AG6       0.069700
     33 H19          1.5440    -0.8370     1.9780 hc         1 AG6       0.018200
     34 H29          3.0550    -0.0880     1.4440 hc         1 AG6       0.018200
     35 H11          3.1130    -3.4680    -1.3270 h1         1 AG6       0.120700
     36 H112         4.4310    -1.4890    -3.2210 hc         1 AG6       0.014200
     37 H212         4.2760    -3.2240    -3.5320 hc         1 AG6       0.014200
     38 H113         1.9700    -1.3010    -3.0550 hc         1 AG6       0.039700
     39 H213         1.8170    -3.0350    -3.3670 hc         1 AG6       0.039700
     40 H114         3.0010    -0.9620    -5.2490 hc         1 AG6      -0.001967
     41 H214         1.4570    -1.8020    -5.4500 hc         1 AG6      -0.001967
     42 H314         2.9750    -2.7040    -5.5570 hc         1 AG6      -0.001967
     43 H24         -0.2890     0.5120     2.8290 ha         1 AG6       0.099500
     44 H25         -0.9370     2.6160     3.9380 ha         1 AG6       0.097000
     45 H27          0.5600     4.5720     3.8450 ha         1 AG6       0.095000
     46 H28          3.3590     2.3200     1.5360 ha         1 AG6       0.099500
     47 H29A         2.7080     4.4250     2.6430 ha         1 AG6       0.097000
     48 H31          6.5580    -6.1360     0.5740 ha         1 AG6       0.118000
     49 H32          3.1230    -7.5580    -1.5780 ha         1 AG6       0.118000
     50 H33          6.9710    -8.4200     1.4000 ha         1 AG6       0.104500
     51 H34          3.5540    -9.8330    -0.7410 ha         1 AG6       0.104500
     52 H35          5.4740   -10.2620     0.7420 ha         1 AG6       0.099000
     53 N31         -2.6700     2.5370     0.2350 ns         1 AG6      -0.139900
     54 C251        -2.6910     0.5590    -1.2040 c3         1 AG6      -0.028400
     55 H241        -2.5420     0.5720     0.9400 h1         1 AG6       0.061700
     56 C261        -4.2160     0.4430    -1.1530 c3         1 AG6      -0.149400
     57 H251        -2.4050     1.1970    -2.0310 hc         1 AG6       0.031200
     58 H26         -2.2590    -0.4250    -1.3400 hc         1 AG6       0.031200
     59 H271        -4.6490     1.4270    -1.0160 hc         1 AG6       0.025200
     60 C271        -4.7180    -0.1510    -2.4440 c          1 AG6       0.981600
     61 H281        -4.5030    -0.1960    -0.3260 hc         1 AG6       0.025200
     62 O4          -6.0330    -0.3470    -2.6250 o          1 AG6      -0.905800
     63 O51         -3.9370    -0.4510    -3.3140 o          1 AG6      -0.905800
     64 H291        -2.0940     3.3020    -0.0580 hn         1 AG6       0.189500
     65 C281        -3.8920     2.7730     0.7510 c          1 AG6       0.671100
     66 O61         -4.3410     4.0360     0.8680 os         1 AG6      -0.425900
     67 O71         -4.5880     1.8440     1.1120 o          1 AG6      -0.653000
     68 C291        -5.6660     4.2150     1.4340 c3         1 AG6       0.294700
     69 H311        -5.6900     3.8040     2.4360 h1         1 AG6       0.017700
     70 H321        -6.3950     3.7040     0.8170 h1         1 AG6       0.017700
     71 C301        -5.9960     5.6850     1.4860 ca         1 AG6      -0.084300
     72 C311        -6.6240     6.2910     0.4140 ca         1 AG6      -0.075500
     73 C321        -6.9270     7.6390     0.4620 ca         1 AG6      -0.123500
     74 C331        -6.6010     8.3810     1.5820 ca         1 AG6      -0.104000
     75 C341        -5.9740     7.7750     2.6550 ca         1 AG6      -0.123500
     76 C351        -5.6760     6.4260     2.6080 ca         1 AG6      -0.075500
     77 H115         5.8300    -2.1740    -0.7380 ha         1 AG6       0.093000
     78 H122         6.4520    -4.4610    -0.3160 ha         1 AG6       0.113000
     79 H351        -6.8820     5.7090    -0.4620 ha         1 AG6       0.112500
     80 H36         -7.4450     8.1070    -0.3660 ha         1 AG6       0.098000
     81 H37         -6.8390     9.4370     1.6190 ha         1 AG6       0.093000
     82 H38         -5.7530     8.3480     3.5470 ha         1 AG6       0.098000
     83 H39         -5.2260     6.1840     3.5630 ha         1 AG6       0.112500
@<TRIPOS>BOND
     1     1     5 1   
     2     1     7 1   
     3     1    29 1   
     4     2     9 1   
     5     2    10 1   
     6     2    30 1   
     7     3     5 2   
     8     4     9 2   
     9     5    31 1   
    10     6    16 2   
    11     7     8 1   
    12     7     9 1   
    13     7    32 1   
    14     8    19 1   
    15     8    33 1   
    16     8    34 1   
    17    10    11 1   
    18    10    14 1   
    19    10    35 1   
    20    11    12 1   
    21    11    36 1   
    22    11    37 1   
    23    12    13 1   
    24    12    38 1   
    25    12    39 1   
    26    13    40 1   
    27    13    41 1   
    28    13    42 1   
    29    14    15 2   
    30    14    77 1   
    31    15    16 1   
    32    15    78 1   
    33    16    23 1   
    34    17    18 ar  
    35    17    19 ar  
    36    17    43 1   
    37    18    20 ar  
    38    18    44 1   
    39    19    21 ar  
    40    20    22 ar  
    41    20    45 1   
    42    21    22 ar  
    43    21    46 1   
    44    22    47 1   
    45    23    24 ar  
    46    23    25 ar  
    47    24    26 ar  
    48    24    48 1   
    49    25    27 ar  
    50    25    49 1   
    51    26    28 ar  
    52    26    50 1   
    53    27    28 ar  
    54    27    51 1   
    55    28    52 1   
    56    31    53 1   
    57    31    54 1   
    58    31    55 1   
    59    53    64 1   
    60    53    65 1   
    61    54    56 1   
    62    54    57 1   
    63    54    58 1   
    64    56    59 1   
    65    56    60 1   
    66    56    61 1   
    67    60    62 1   
    68    60    63 1   
    69    65    66 1   
    70    65    67 2   
    71    66    68 1   
    72    68    69 1   
    73    68    70 1   
    74    68    71 1   
    75    71    72 ar  
    76    71    76 ar  
    77    72    73 ar  
    78    72    79 1   
    79    73    74 ar  
    80    73    80 1   
    81    74    75 ar  
    82    74    81 1   
    83    75    76 ar  
    84    75    82 1   
    85    76    83 1   
@<TRIPOS>SUBSTRUCTURE
     1 AG6         1 TEMP              0 ****  ****    0 ROOT
