@<TRIPOS>MOLECULE
AG7
   86    88     1     0     0
SMALL
bcc


@<TRIPOS>ATOM
      1 C01         0.4770   -0.4360   -0.4500 c         1 AG7      0.567100
      2 C02         1.9660   -0.4010   -0.3120 c3        1 AG7     -0.177400
      3 O03        -0.3160   -0.6890    0.4580 o         1 AG7     -0.493100
      4 C04         2.4140   -0.4630    1.1450 c3        1 AG7     -0.130700
      5 C05         2.4010   -1.9010    1.6630 c3        1 AG7     -0.043100
      6 C06         2.3050   -1.9910    3.1450 ca        1 AG7     -0.177300
      7 C07         1.1800   -1.4880    3.8120 ca        1 AG7     -0.108000
      8 C08         1.0480   -1.6290    5.1880 ca        1 AG7     -0.165000
      9 C09         2.0520   -2.2990    5.9160 ca        1 AG7      0.158900
     10 C10         3.1780   -2.8220    5.2500 ca        1 AG7     -0.165000
     11 C11         3.2930   -2.6670    3.8730 ca        1 AG7     -0.108000
     12 N12         4.3800    0.0800    2.6550 n4        1 AG7     -0.678800
     13 C13         5.5320    1.0140    2.9200 c3        1 AG7      0.130500
     14 C14         5.2890    1.8680    4.1760 c3        1 AG7     -0.093400
     15 C15         4.4290    3.0880    3.9240 c3        1 AG7     -0.156700
     16 C16         2.9210    2.7880    3.9100 c         1 AG7      0.702500
     17 N17         2.2670    3.6060    4.7870 n         1 AG7     -0.532900
     18 O18         2.3690    1.9260    3.1860 o         1 AG7     -0.745500
     19 C19         6.8600    0.2550    3.0690 c3        1 AG7     -0.099400
     20 C20         7.3460   -0.3920    1.7890 c3        1 AG7     -0.159400
     21 C21         6.9290   -1.8290    1.6740 c         1 AG7      0.652100
     22 O22         7.9270   -2.6530    1.3040 os        1 AG7     -0.395900
     23 O23         5.7900   -2.2870    1.8790 o         1 AG7     -0.641000
     24 C47         3.7920    0.1540    1.2770 c         1 AG7      0.582100
     25 O48         4.4410    0.6950    0.3900 o         1 AG7     -0.460100
     26 C50         7.6460   -4.0610    1.1400 c3        1 AG7      0.136400
     27 C53         7.0590   -4.3310   -0.2210 c3        1 AG7     -0.128100
     28 C57        -0.0530   -0.1600   -1.8690 c3        1 AG7      0.017500
     29 N58        -1.1260   -1.1520   -2.2260 n4        1 AG7     -0.672800
     30 C59        -0.6070   -2.5060   -2.6690 c         1 AG7      0.509600
     31 O60         0.5950   -2.7050   -2.5720 o         1 AG7     -0.421100
     32 C78        -0.5920    1.2900   -1.9500 c3        1 AG7     -0.077700
     33 C81         0.5100    2.2590   -1.5730 c3        1 AG7     -0.117100
     34 F1          1.9340   -2.4410    7.2530 f         1 AG7     -0.109900
     35 C82        -1.1100    1.6060   -3.3380 c3        1 AG7     -0.117100
     36 C83         3.1630    4.5050    5.4900 c3        1 AG7      0.077000
     37 C84         4.5930    4.1450    5.0310 c3        1 AG7     -0.096400
     38 C1         -1.6270   -3.4180   -3.1620 cc        1 AG7      0.187800
     39 C2         -1.3670   -4.7500   -3.6890 cc        1 AG7     -0.298600
     40 C3         -2.6250   -5.2310   -4.0240 cd        1 AG7      0.327000
     41 O4         -3.5660   -4.2060   -3.6980 os        1 AG7     -0.045100
     42 N5         -2.9690   -3.1720   -3.2030 nd        1 AG7     -0.309300
     43 C4         -3.1740   -6.4550   -4.5960 c3        1 AG7     -0.167400
     44 H2          2.3860   -1.2770   -0.8830 hc        1 AG7      0.111200
     45 H3          2.3600    0.5340   -0.8010 hc        1 AG7      0.111200
     46 H27         1.7090    0.1700    1.7740 hc        1 AG7      0.146700
     47 H28         1.5000   -2.4130    1.2220 hc        1 AG7      0.082700
     48 H29         3.3140   -2.4460    1.2950 hc        1 AG7      0.082700
     49 H30         0.3830   -0.9850    3.2390 ha        1 AG7      0.156500
     50 H31         0.1620   -1.2410    5.7140 ha        1 AG7      0.170000
     51 H33         3.9440   -3.3680    5.8230 ha        1 AG7      0.170000
     52 H34         4.1590   -3.1110    3.3480 ha        1 AG7      0.156500
     53 H49         4.6790   -0.9060    2.8050 hn        1 AG7      0.492800
     54 H91         5.6200    1.7050    2.0250 hx        1 AG7      0.119700
     55 H35         6.2950    2.2280    4.5320 hc        1 AG7      0.088700
     56 H36         4.8580    1.2500    5.0090 hc        1 AG7      0.088700
     57 H94         4.6870    3.5420    2.9280 hc        1 AG7      0.094700
     58 H39         1.2860    3.6270    4.9150 hn        1 AG7      0.354500
     59 H191        7.6310    1.0120    3.3850 hc        1 AG7      0.092200
     60 H192        6.7870   -0.5030    3.8930 hc        1 AG7      0.092200
     61 H41         6.9530    0.1490    0.8840 hc        1 AG7      0.110200
     62 H42         8.4710   -0.3390    1.7480 hc        1 AG7      0.110200
     63 H51         8.6680   -4.5170    1.2540 h1        1 AG7      0.081200
     64 H52         6.9660   -4.4060    1.9610 h1        1 AG7      0.081200
     65 H53         6.9570   -5.4340   -0.3650 hc        1 AG7      0.056367
     66 H54         6.0520   -3.8580   -0.3120 hc        1 AG7      0.056367
     67 H56         7.7200   -3.9240   -1.0240 hc        1 AG7      0.056367
     68 H77         0.7860   -0.2860   -2.6180 hx        1 AG7      0.131700
     69 H61        -1.7000   -0.7570   -2.9860 hn        1 AG7      0.483300
     70 H79        -1.4310    1.3990   -1.2030 hc        1 AG7      0.086700
     71 H82         0.8220    2.1140   -0.5100 hc        1 AG7      0.063033
     72 H84         1.3980    2.1390   -2.2400 hc        1 AG7      0.063033
     73 H85         0.1330    3.3080   -1.6790 hc        1 AG7      0.063033
     74 H86        -1.2210    2.7160   -3.4530 hc        1 AG7      0.063033
     75 H87        -2.1200    1.1620   -3.5180 hc        1 AG7      0.063033
     76 H88        -0.4030    1.2520   -4.1260 hc        1 AG7      0.063033
     77 H89         3.0470    4.3690    6.6000 h1        1 AG7      0.076700
     78 H90         2.9150    5.5730    5.2350 h1        1 AG7      0.076700
     79 H92         5.1170    5.0510    4.6400 hc        1 AG7      0.079700
     80 H93         5.1830    3.7470    5.8920 hc        1 AG7      0.079700
     81 H8         -0.3970   -5.2310   -3.7870 ha        1 AG7      0.213000
     82 H5         -2.7440   -6.6260   -5.6170 hc        1 AG7      0.099033
     83 H6         -4.2900   -6.3950   -4.6820 hc        1 AG7      0.099033
     84 H7         -2.9110   -7.3310   -3.9460 hc        1 AG7      0.099033
     85 H122        3.6080    0.2860    3.3170 hn        1 AG7      0.492800
     86 H582       -1.7360   -1.2890   -1.4030 hn        1 AG7      0.483300
@<TRIPOS>BOND
     1    1    2 1   
     2    1    3 2   
     3    1   28 1   
     4    2    4 1   
     5    2   44 1   
     6    2   45 1   
     7    4    5 1   
     8    4   24 1   
     9    4   46 1   
    10    5    6 1   
    11    5   47 1   
    12    5   48 1   
    13    6    7 ar  
    14    6   11 ar  
    15    7    8 ar  
    16    7   49 1   
    17    8    9 ar  
    18    8   50 1   
    19    9   10 ar  
    20    9   34 1   
    21   10   11 ar  
    22   10   51 1   
    23   11   52 1   
    24   12   13 1   
    25   12   24 1   
    26   12   53 1   
    27   12   85 1   
    28   13   14 1   
    29   13   19 1   
    30   13   54 1   
    31   14   15 1   
    32   14   55 1   
    33   14   56 1   
    34   15   16 1   
    35   15   37 1   
    36   15   57 1   
    37   16   17 1   
    38   16   18 2   
    39   17   36 1   
    40   17   58 1   
    41   19   20 1   
    42   19   59 1   
    43   19   60 1   
    44   20   21 1   
    45   20   61 1   
    46   20   62 1   
    47   21   22 1   
    48   21   23 2   
    49   22   26 1   
    50   24   25 2   
    51   26   27 1   
    52   26   63 1   
    53   26   64 1   
    54   27   65 1   
    55   27   66 1   
    56   27   67 1   
    57   28   29 1   
    58   28   32 1   
    59   28   68 1   
    60   29   30 1   
    61   29   69 1   
    62   29   86 1   
    63   30   31 2   
    64   30   38 1   
    65   32   33 1   
    66   32   35 1   
    67   32   70 1   
    68   33   71 1   
    69   33   72 1   
    70   33   73 1   
    71   35   74 1   
    72   35   75 1   
    73   35   76 1   
    74   36   37 1   
    75   36   77 1   
    76   36   78 1   
    77   37   79 1   
    78   37   80 1   
    79   38   39 1   
    80   38   42 2   
    81   39   40 2   
    82   39   81 1   
    83   40   41 1   
    84   40   43 1   
    85   41   42 1   
    86   43   82 1   
    87   43   83 1   
    88   43   84 1   
@<TRIPOS>SUBSTRUCTURE
     1 AG7         1 TEMP              0 ****  ****    0 ROOT
