@<TRIPOS>MOLECULE
molecule
   63    62     1     0     0
SMALL
bcc


@<TRIPOS>ATOM
      1 C01          0.0000     0.0000     0.0000 c3         1 AG8       0.154900
      2 C02          1.5070     0.0000     0.0000 c2         1 AG8      -0.067200
      3 C03          2.1620     0.0000     1.1340 c2         1 AG8      -0.245400
      4 C04          3.6610    -0.1500     1.1390 c3         1 AG8      -0.008200
      5 C05          4.3120     1.2340     1.1820 c3         1 AG8      -0.053200
      6 C06          5.8110     1.0840     1.1860 c2         1 AG8      -0.173200
      7 C07          6.5260     1.6120     0.2240 c2         1 AG8      -0.151400
      8 C08          8.0310     1.5810     0.2970 c3         1 AG8      -0.029200
      9 C09          8.5530     0.3680    -0.4770 c3         1 AG8      -0.053200
     10 C10         10.0580     0.3370    -0.4020 c2         1 AG8      -0.148200
     11 C11         10.6650    -0.6810     0.1580 c2         1 AG8      -0.164400
     12 C12         12.1700    -0.7360     0.1880 c3         1 AG8      -0.034200
     13 C13         12.6740    -0.1710     1.5180 c3         1 AG8      -0.077400
     14 C14         14.2030    -0.2270     1.5490 c3         1 AG8       0.158800
     15 N15         14.6870     0.3160     2.8270 n3         1 AG8      -0.729600
     16 C16          1.4160     0.1520     2.4350 c3         1 AG8      -0.030900
     17 C17          5.8430     2.2530    -0.9570 c3         1 AG8      -0.052900
     18 C18          9.8570    -1.7950     0.7710 c3         1 AG8      -0.044900
     19 C19         14.2830    -0.5410     3.9490 c3         1 AG8       0.152100
     20 C20         16.1450     0.4990     2.8020 c3         1 AG8       0.152100
     21 S21         -0.6040     1.5420    -0.7410 ss         1 AG8      -0.593500
     22 P22         -0.2590     1.2440    -2.8110 p5         1 AG8       1.182800
     23 O23         -0.7470     2.5420    -3.6290 os         1 AG8      -0.676800
     24 P24         -0.7620     2.9410    -5.1880 p5         1 AG8       1.275900
     25 O25         -2.0200     2.2410    -5.9090 o          1 AG8      -0.934167
     26 O26         -1.0820    -0.0460    -3.3120 o          1 AG8      -0.775000
     27 O27          1.1870     1.0290    -3.0450 o          1 AG8      -0.775000
     28 O28         -0.8820     4.5400    -5.3330 o          1 AG8      -0.934167
     29 O29          0.4910     2.4820    -5.8270 o          1 AG8      -0.934167
     30 H01         -0.3610    -0.8430    -0.5760 h1         1 AG8       0.049700
     31 H01A        -0.3610    -0.0770     1.0180 h1         1 AG8       0.049700
     32 H02          2.0450    -0.1080    -0.9340 ha         1 AG8       0.178000
     33 H04          3.9640    -0.7190     2.0090 hc         1 AG8       0.025200
     34 H04A         3.9740    -0.6690     0.2410 hc         1 AG8       0.025200
     35 H05          4.0090     1.8030     0.3110 hc         1 AG8       0.063700
     36 H05A         3.9990     1.7530     2.0800 hc         1 AG8       0.063700
     37 H06          6.3040     0.6250     2.0350 ha         1 AG8       0.093000
     38 H08          8.4330     2.4880    -0.1380 hc         1 AG8       0.033700
     39 H08A         8.3410     1.5090     1.3330 hc         1 AG8       0.033700
     40 H09          8.1510    -0.5380    -0.0420 hc         1 AG8       0.061700
     41 H09A         8.2440     0.4410    -1.5120 hc         1 AG8       0.061700
     42 H10         10.6390     1.1380    -0.8430 ha         1 AG8       0.117000
     43 H12         12.5700    -0.1470    -0.6280 hc         1 AG8       0.037700
     44 H12A        12.4970    -1.7640     0.0860 hc         1 AG8       0.037700
     45 H13         12.3480     0.8570     1.6210 hc         1 AG8       0.053200
     46 H13A        12.2740    -0.7600     2.3350 hc         1 AG8       0.053200
     47 H14         14.5290    -1.2550     1.4470 h1         1 AG8       0.029200
     48 H14A        14.6030     0.3620     0.7320 h1         1 AG8       0.029200
     49 H16          0.7510    -0.6930     2.5710 hc         1 AG8       0.020700
     50 H16A         2.1230     0.1910     3.2540 hc         1 AG8       0.020700
     51 H16B         0.8360     1.0670     2.4140 hc         1 AG8       0.020700
     52 H17          6.5890     2.6580    -1.6300 hc         1 AG8       0.055700
     53 H17A         5.1980     3.0520    -0.6110 hc         1 AG8       0.055700
     54 H17B         5.2510     1.5110    -1.4780 hc         1 AG8       0.055700
     55 H18         10.5220    -2.5830     1.1020 hc         1 AG8       0.039367
     56 H18A         9.3000    -1.4130     1.6180 hc         1 AG8       0.039367
     57 H18B         9.1680    -2.1900     0.0340 hc         1 AG8       0.039367
     58 H19         13.2960    -0.2490     4.2890 h1         1 AG8       0.028033
     59 H19A        14.2620    -1.5740     3.6240 h1         1 AG8       0.028033
     60 H19B        14.9920    -0.4310     4.7600 h1         1 AG8       0.028033
     61 H20         16.6260    -0.4590     2.6490 h1         1 AG8       0.028033
     62 H20A        16.4110     1.1700     1.9940 h1         1 AG8       0.028033
     63 H20B        16.4720     0.9210     3.7440 h1         1 AG8       0.028033
@<TRIPOS>BOND
     1     1     2 1
     2     1    21 1
     3     1    30 1
     4     1    31 1
     5     2     3 2
     6     2    32 1
     7     3     4 1
     8     3    16 1
     9     4     5 1
    10     4    33 1
    11     4    34 1
    12     5     6 1
    13     5    35 1
    14     5    36 1
    15     6     7 2
    16     6    37 1
    17     7     8 1
    18     7    17 1
    19     8     9 1
    20     8    38 1
    21     8    39 1
    22     9    10 1
    23     9    40 1
    24     9    41 1
    25    10    11 2
    26    10    42 1
    27    11    12 1
    28    11    18 1
    29    12    13 1
    30    12    43 1
    31    12    44 1
    32    13    14 1
    33    13    45 1
    34    13    46 1
    35    14    15 1
    36    14    47 1
    37    14    48 1
    38    15    19 1
    39    15    20 1
    40    16    49 1
    41    16    50 1
    42    16    51 1
    43    17    52 1
    44    17    53 1
    45    17    54 1
    46    18    55 1
    47    18    56 1
    48    18    57 1
    49    19    58 1
    50    19    59 1
    51    19    60 1
    52    20    61 1
    53    20    62 1
    54    20    63 1
    55    21    22 1
    56    22    23 1
    57    22    26 1
    58    22    27 1
    59    23    24 1
    60    24    25 1
    61    24    28 1
    62    24    29 1
@<TRIPOS>SUBSTRUCTURE
     1 AG8         1 TEMP              0 ****  ****    0 ROOT
