@<TRIPOS>MOLECULE
molecule
   60    61     1     0     0
SMALL
bcc


@<TRIPOS>ATOM
      1 P            0.0000     0.0000     0.0000 p5         1 AG9       1.164900
      2 N1          -3.9750    -3.4830    -4.1610 nh         1 AG9      -0.666400
      3 C2          -5.0630    -4.3180    -4.0440 c2         1 AG9       0.930100
      4 N2          -4.8790    -5.6210    -3.6460 nu         1 AG9      -0.862200
      5 N3          -6.2610    -3.8910    -4.3020 n2         1 AG9      -0.842900
      6 C4          -6.5340    -2.5210    -4.7140 c3         1 AG9       0.419900
      7 N4          -7.5110    -2.5350    -5.8120 nz         1 AG9      -0.818600
      8 C5          -5.2850    -1.8270    -5.1760 c2         1 AG9      -0.392200
      9 C6          -4.0920    -2.3060    -4.8940 c2         1 AG9       0.184000
     10 CA          -6.0300    -6.5170    -3.5180 c3         1 AG9       0.248800
     11 CB          -5.5530    -7.8990    -3.0640 c3         1 AG9      -0.103400
     12 CD          -6.2780   -10.2160    -2.4760 c3         1 AG9       0.189800
     13 NE          -7.4330   -11.1160    -2.3480 n7         1 AG9      -0.972200
     14 CG          -6.7550    -8.8360    -2.9300 c3         1 AG9      -0.083400
     15 CZ          -7.0110   -12.4540    -1.9140 c3         1 AG9       0.522900
     16 C1'         -2.7060    -3.8300    -3.5160 c3         1 AG9       0.407300
     17 OP1          1.4800     0.0000     0.0000 o          1 AG9      -0.516500
     18 C2'         -1.5930    -4.0010    -4.5740 c3         1 AG9       0.080100
     19 O2'         -1.3990    -5.3830    -4.8770 oh         1 AG9      -0.580800
     20 OP2         -0.5380     0.0000     1.5170 o          1 AG9      -0.516500
     21 C3'         -0.3350    -3.4140    -3.8940 c3         1 AG9       0.097100
     22 O3'          0.6740    -4.4160    -3.7580 oh         1 AG9      -0.568800
     23 OP3         -0.5360     1.3160    -0.7590 o          1 AG9      -0.516500
     24 C4'         -0.8370    -2.9580    -2.5070 c3         1 AG9       0.120100
     25 O4'         -2.2550    -2.7420    -2.6790 os         1 AG9      -0.383600
     26 C5'         -0.1480    -1.6570    -2.0920 c3         1 AG9       0.224400
     27 O5'         -0.5370    -1.3140    -0.7600 os         1 AG9      -0.569200
     28 NH1         -6.3850   -13.1600    -3.0390 nz         1 AG9      -0.849600
     29 NH2         -8.1840   -13.2100    -1.4520 nz         1 AG9      -0.849600
     30 HN2         -3.9600    -5.9510    -3.4230 hn         1 AG9       0.472800
     31 H1N4        -8.3290    -2.0280    -5.5380 hn         1 AG9       0.446800
     32 H2N4        -7.1080    -2.1060    -6.6220 hn         1 AG9       0.446800
     33 H5          -5.3530    -0.8470    -5.6320 ha         1 AG9       0.163000
     34 H6          -3.2170    -1.7070    -5.1180 h4         1 AG9       0.194000
     35 H1A         -6.5280    -6.6040    -4.4760 h1         1 AG9       0.056200
     36 H2A         -6.7200    -6.1150    -2.7860 h1         1 AG9       0.056200
     37 H1B         -4.8620    -8.3000    -3.7960 hc         1 AG9       0.058200
     38 H2B         -5.0540    -7.8120    -2.1070 hc         1 AG9       0.058200
     39 H1D         -5.7800   -10.1290    -1.5180 h1         1 AG9       0.035200
     40 H2D         -5.5870   -10.6180    -3.2080 h1         1 AG9       0.035200
     41 HNE         -8.3210   -10.7530    -2.0620 hn         1 AG9       0.425800
     42 H1G         -7.4460    -8.4340    -2.1990 hc         1 AG9       0.054700
     43 H2G         -7.2540    -8.9230    -3.8880 hc         1 AG9       0.054700
     44 H1'         -2.8090    -4.7360    -2.9300 h2         1 AG9       0.089700
     45 H2'         -1.8350    -3.4400    -5.4690 h1         1 AG9       0.045700
     46 HO2'        -1.2750    -5.4870    -5.8050 ho         1 AG9       0.413000
     47 H3'          0.0370    -2.5660    -4.4580 h1         1 AG9       0.059700
     48 HO3'         1.4430    -4.1550    -4.2370 ho         1 AG9       0.415000
     49 H4'         -0.6630    -3.7340    -1.7720 h1         1 AG9       0.095700
     50 H15'        -0.4390    -0.8620    -2.7690 h1         1 AG9       0.047200
     51 H25'         0.9270    -1.7890    -2.1310 h1         1 AG9       0.047200
     52 H1H1        -6.8670   -12.9320    -3.8860 hn         1 AG9       0.355133
     53 H2H1        -5.4270   -12.8830    -3.1160 hn         1 AG9       0.355133
     54 H1H2        -8.8430   -13.2940    -2.2010 hn         1 AG9       0.355133
     55 H2H2        -7.8970   -14.1220    -1.1560 hn         1 AG9       0.355133
     56 HZ          -6.2980   -12.3630    -1.1030 hx         1 AG9       0.039700
     57 H4          -6.9480    -1.9770    -3.8730 hx         1 AG9       0.117700
     58 H43         -7.7600    -3.4810    -6.0250 hn         1 AG9       0.446800
     59 HH13        -6.4350   -14.1470    -2.8830 hn         1 AG9       0.355133
     60 HH23        -8.6210   -12.7200    -0.6970 hn         1 AG9       0.355133
@<TRIPOS>BOND
     1    29    15 1
     2    28    15 1
     3    15    13 1
     4    13    12 1
     5    12    14 1
     6    19    18 1
     7    10    11 1
     8    10     4 1
     9    14    11 1
    10    22    21 1
    11    18    21 1
    12    18    16 1
    13     4     3 1
    14    21    24 1
    15    16    25 1
    16    16     2 1
    17    24    25 1
    18    24    26 1
    19     3     2 1
    20     3     5 2
    21     2     9 1
    22     5     6 1
    23    26    27 1
    24    27     1 1
    25     9     8 2
    26     6     8 1
    27     6     7 1
    28     1    17 1
    29     1    20 1
    30     1    23 1
    31     4    30 1
    32     7    31 1
    33     7    32 1
    34     8    33 1
    35     9    34 1
    36    10    35 1
    37    10    36 1
    38    11    37 1
    39    11    38 1
    40    12    39 1
    41    12    40 1
    42    13    41 1
    43    14    42 1
    44    14    43 1
    45    16    44 1
    46    18    45 1
    47    19    46 1
    48    21    47 1
    49    22    48 1
    50    24    49 1
    51    26    50 1
    52    26    51 1
    53    28    52 1
    54    28    53 1
    55    29    54 1
    56    29    55 1
    57    15    56 1
    58     6    57 1
    59    58     7 1
    60    59    28 1
    61    60    29 1
@<TRIPOS>SUBSTRUCTURE
     1 AG9         1 TEMP              0 ****  ****    0 ROOT
