@<TRIPOS>MOLECULE
AG9
   62    63     1     0     0
SMALL
bcc


@<TRIPOS>ATOM
      1 P          70.0390  377.3260  -54.9980 p5        1 AG9      2.586000
      2 N1         71.7520  375.5860  -51.2220 n3        1 AG9     -0.265000
      3 C2         72.6600  374.5550  -51.5280 c2        1 AG9      0.161000
      4 N2         74.0880  374.7210  -51.0920 n4        1 AG9     -0.012000
      5 N3         72.3480  373.4090  -52.1070 n2        1 AG9     -0.237000
      6 C4         70.9640  373.1530  -52.4710 c3        1 AG9      0.080000
      7 N4         70.7300  373.2330  -53.9920 n4        1 AG9     -0.093000
      8 C5         69.9800  374.0530  -51.7830 c2        1 AG9     -0.296000
      9 C6         70.3960  375.2200  -51.2360 c2        1 AG9      0.058000
     10 CA         74.7150  373.4560  -50.5640 c3        1 AG9     -0.116000
     11 CB         76.0820  373.7360  -49.9500 c3        1 AG9     -0.185000
     12 CD         78.0500  372.7040  -48.8150 c3        1 AG9     -0.059000
     13 NE         78.7440  371.5770  -48.2830 n3        1 AG9     -0.344000
     14 CG         76.6690  372.4350  -49.4400 c3        1 AG9     -0.214000
     15 CZ       -407.3950-1989.2750  248.1690 c2        1 AG9     -0.786000
     16 C1'        72.1290  376.9660  -50.8850 c3        1 AG9      0.117000
     17 OP1        69.1330  378.1200  -55.7690 o         1 AG9     -0.929000
     18 C2'        73.2930  377.5660  -51.7440 c3        1 AG9     -0.012000
     19 O2'        74.5080  377.4170  -51.0590 oh        1 AG9     -0.369000
     20 OP2        69.7810  375.8250  -54.3470 os        1 AG9     -0.588500
     21 C3'        72.8560  379.0260  -52.0030 c3        1 AG9      0.003000
     22 O3'        73.4540  379.8220  -51.0040 oh        1 AG9     -0.324000
     23 OP3        70.7750  375.8740  -55.2520 os        1 AG9     -0.588500
     24 C4'        71.3270  379.0000  -51.8110 c3        1 AG9     -0.004000
     25 O4'        70.9880  377.8080  -51.0770 os        1 AG9     -0.256000
     26 C5'        70.5640  379.0430  -53.1340 c3        1 AG9      0.003000
     27 O5'        71.0410  378.0020  -53.9760 os        1 AG9     -0.745000
     28 NH1      -408.6690-1989.8630  247.9360 n4        1 AG9      0.101000
     29 NH2      -407.0930-1987.9090  247.9110 n4        1 AG9      0.101000
     30 HN2        74.6320  375.0680  -51.8960 hn        1 AG9      0.278000
     31 H1N4       70.8980  372.3230  -54.4230 hn        1 AG9      0.266333
     32 H2N4       71.3330  373.9350  -54.4420 hn        1 AG9      0.266333
     33 H5         68.9310  373.7270  -51.7220 ha        1 AG9      0.205000
     34 H6         69.7110  375.9450  -50.7450 h4        1 AG9      0.223000
     35 H1A        74.8170  372.7260  -51.4180 hx        1 AG9      0.158000
     36 H2A        74.0190  373.0210  -49.7910 hx        1 AG9      0.158000
     37 H1B        75.9930  374.4620  -49.0970 hc        1 AG9      0.112500
     38 H2B        76.7750  374.1820  -50.7120 hc        1 AG9      0.112500
     39 H1D        77.9170  373.4550  -47.9840 h1        1 AG9      0.098000
     40 H2D        78.7040  373.1750  -49.6040 h1        1 AG9      0.098000
     41 HNE        78.9730  370.8970  -48.9770 hn        1 AG9      0.165500
     42 H1G        75.9870  371.9810  -48.6740 hc        1 AG9      0.096000
     43 H2G        76.7700  371.7030  -50.2830 hc        1 AG9      0.096000
     44 H1'        72.3740  376.9980  -49.7790 h2        1 AG9      0.153000
     45 H2'        73.4100  377.0340  -52.7280 h1        1 AG9      0.129000
     46 HO2'       74.7100  378.2270  -50.5560 ho        1 AG9      0.283000
     47 H3'        73.1380  379.3530  -53.0370 h1        1 AG9      0.142000
     48 HO3'       73.7160  380.6670  -51.3990 ho        1 AG9      0.256000
     49 H4'        70.9780  379.8530  -51.1580 h1        1 AG9      0.179000
     50 H15'       69.4640  378.9030  -52.9590 h1        1 AG9      0.128000
     51 H25'       70.7610  380.0330  -53.6350 h1        1 AG9      0.128000
     52 H1H1     -408.5870-1990.8490  248.2130 hn        1 AG9      0.225000
     53 H2H1     -408.9440-1989.8210  246.9480 hn        1 AG9      0.225000
     54 H1H2     -406.1090-1987.7770  248.1740 hn        1 AG9      0.225000
     55 H2H2     -407.6710-1987.2680  248.4670 hn        1 AG9      0.225000
     56 HZ       -406.6010-1989.9100  248.5720 hx        1 AG9      0.234000
     57 H4         70.7750  372.0580  -52.2070 hx        1 AG9      0.189000
     58 H22        74.1470  375.4470  -50.3520 hn        1 AG9      0.278000
     59 H43        69.7590  373.5330  -54.1610 hn        1 AG9      0.266333
     60 HE3        78.2640  371.1500  -47.5180 hn        1 AG9      0.165500
     61 HH13     -409.4110-1989.4250  248.4950 hn        1 AG9      0.225000
     62 HH23     -407.2050-1987.6640  246.9210 hn        1 AG9      0.225000
@<TRIPOS>BOND
     1    1   17 1   
     2    1   20 1   
     3    1   23 1   
     4    1   27 1   
     5    2    3 1   
     6    2    9 1   
     7    2   16 1   
     8    3    4 1   
     9    3    5 1   
    10    4   10 1   
    11    4   30 1   
    12    4   58 1   
    13    5    6 1   
    14    6    7 1   
    15    6    8 1   
    16    6   57 1   
    17    7   31 1   
    18    7   32 1   
    19    7   59 1   
    20    8    9 1   
    21    8   33 1   
    22    9   34 1   
    23   10   11 1   
    24   10   35 1   
    25   10   36 1   
    26   11   14 1   
    27   11   37 1   
    28   11   38 1   
    29   12   13 1   
    30   12   14 1   
    31   12   39 1   
    32   12   40 1   
    33   13   41 1   
    34   13   60 1   
    35   14   42 1   
    36   14   43 1   
    37   15   28 1   
    38   15   29 1   
    39   15   56 1   
    40   16   18 1   
    41   16   25 1   
    42   16   44 1   
    43   18   19 1   
    44   18   21 1   
    45   18   45 1   
    46   19   46 1   
    47   20   23 1   
    48   21   22 1   
    49   21   24 1   
    50   21   47 1   
    51   22   48 1   
    52   24   25 1   
    53   24   26 1   
    54   24   49 1   
    55   26   27 1   
    56   26   50 1   
    57   26   51 1   
    58   28   52 1   
    59   28   53 1   
    60   28   61 1   
    61   29   54 1   
    62   29   55 1   
    63   29   62 1   
@<TRIPOS>SUBSTRUCTURE
     1 AG9         1 TEMP              0 ****  ****    0 ROOT
