@<TRIPOS>MOLECULE
AGA
   66    65     1     0     0
SMALL
bcc


@<TRIPOS>ATOM
      1 O1          1.0750   -1.9140    1.9100 oh        1 AGA     -0.631800
      2 C1          2.0880   -0.9730    1.5880 c3        1 AGA      0.072400
      3 C2          2.1930    0.0840    2.6890 c3        1 AGA      0.075100
      4 O2          1.0140    0.8850    2.7390 oh        1 AGA     -0.621800
      5 C3          3.3790    1.0360    2.4380 c3        1 AGA      0.199400
      6 P1          5.7220    0.0410    2.9800 p5        1 AGA      1.429800
      7 O3          5.2740   -0.9100    1.9430 o         1 AGA     -0.830500
      8 O4          6.8460    0.9870    2.8610 o         1 AGA     -0.830500
      9 O5          4.3590    0.8790    3.4130 os        1 AGA     -0.575200
     10 O6          5.9270   -0.7960    4.3890 os        1 AGA     -0.550200
     11 C4          7.1140   -0.6250    5.0830 c3        1 AGA      0.190400
     12 C5          6.9130   -0.2460    6.5600 c3        1 AGA      0.127100
     13 C6          6.2030    1.0810    6.8050 c3        1 AGA      0.119400
     14 O7          4.7940    0.8720    6.6630 os        1 AGA     -0.412900
     15 C7          4.0190    1.9930    6.5380 c         1 AGA      0.652100
     16 O8          4.5210    3.0880    6.8130 o         1 AGA     -0.573000
     17 C8          2.6380    1.6710    6.0680 c3        1 AGA     -0.141400
     18 C9          1.6800    2.8170    6.2980 c3        1 AGA     -0.070400
     19 C10         0.3270    2.5080    5.6920 c3        1 AGA     -0.091400
     20 C11        -0.6140    3.6770    5.8220 c3        1 AGA     -0.086100
     21 O9          6.1980   -1.3360    7.1680 os        1 AGA     -0.389900
     22 C12         6.3140   -1.5070    8.5110 c         1 AGA      0.630100
     23 O10         7.0790   -0.7860    9.1620 o         1 AGA     -0.576000
     24 C13         5.4380   -2.6140    9.0170 c3        1 AGA     -0.130400
     25 C14         6.0880   -3.3420   10.1740 c3        1 AGA     -0.078400
     26 C15         5.1400   -4.3600   10.7710 c3        1 AGA     -0.078400
     27 C16         5.7910   -5.1050   11.9170 c3        1 AGA     -0.078400
     28 C17         4.8440   -6.1200   12.5210 c3        1 AGA     -0.079400
     29 C18         5.4930   -6.8660   13.6660 c3        1 AGA     -0.080400
     30 C19         4.5540   -7.8780   14.2710 c3        1 AGA     -0.092100
     31 HO1         1.4280   -2.4690    2.6140 ho        1 AGA      0.398000
     32 H11         3.0840   -1.4750    1.4400 h1        1 AGA      0.085700
     33 H12         1.7450   -0.5050    0.6270 h1        1 AGA      0.085700
     34 H2          2.3130   -0.4250    3.6880 h1        1 AGA      0.049700
     35 HO2         0.2710    0.2770    2.6390 ho        1 AGA      0.398000
     36 H31         3.8070    0.8440    1.4160 h1        1 AGA      0.039700
     37 H32         3.0030    2.0970    2.5000 h1        1 AGA      0.039700
     38 H41         7.7480    0.1800    4.6110 h1        1 AGA      0.046700
     39 H42         7.6700   -1.6090    5.0780 h1        1 AGA      0.046700
     40 H5          7.9330   -0.1670    7.0380 h1        1 AGA      0.055700
     41 H61         6.5520    1.8500    6.0660 h1        1 AGA      0.063200
     42 H62         6.3950    1.4380    7.8520 h1        1 AGA      0.063200
     43 H81         2.2800    0.7400    6.5790 hc        1 AGA      0.098200
     44 H82         2.7240    1.4380    4.9630 hc        1 AGA      0.098200
     45 H91         1.5720    3.0100    7.3970 hc        1 AGA      0.045200
     46 H92         2.1020    3.7500    5.8400 hc        1 AGA      0.045200
     47 H101       -0.1140    1.6110    6.2020 hc        1 AGA      0.051200
     48 H102        0.4580    2.2390    4.6070 hc        1 AGA      0.051200
     49 H111       -1.6090    3.4260    5.3800 hc        1 AGA      0.025367
     50 H112       -0.2070    4.5700    5.2890 hc        1 AGA      0.025367
     51 H113       -0.7630    3.9480    6.8950 hc        1 AGA      0.025367
     52 H131        4.4690   -2.1480    9.3400 hc        1 AGA      0.078200
     53 H132        5.2110   -3.3240    8.1780 hc        1 AGA      0.078200
     54 H141        6.3980   -2.5990   10.9550 hc        1 AGA      0.053700
     55 H142        7.0200   -3.8550    9.8180 hc        1 AGA      0.053700
     56 H151        4.2140   -3.8430   11.1370 hc        1 AGA      0.040200
     57 H152        4.8210   -5.0890    9.9800 hc        1 AGA      0.040200
     58 H161        6.1130   -4.3750   12.7050 hc        1 AGA      0.040200
     59 H162        6.7150   -5.6240   11.5500 hc        1 AGA      0.040200
     60 H171        3.9200   -5.6000   12.8880 hc        1 AGA      0.039200
     61 H172        4.5210   -6.8490   11.7320 hc        1 AGA      0.039200
     62 H181        6.4180   -7.3840   13.2970 hc        1 AGA      0.037700
     63 H182        5.8170   -6.1350   14.4530 hc        1 AGA      0.037700
     64 H191        5.0520   -8.4170   15.1130 hc        1 AGA      0.030367
     65 H192        4.2400   -8.6300   13.5080 hc        1 AGA      0.030367
     66 H193        3.6370   -7.3770   14.6660 hc        1 AGA      0.030367
@<TRIPOS>BOND
     1    1    2 1   
     2    1   31 1   
     3    2    3 1   
     4    2   32 1   
     5    2   33 1   
     6    3    4 1   
     7    3    5 1   
     8    3   34 1   
     9    4   35 1   
    10    5    9 1   
    11    5   36 1   
    12    5   37 1   
    13    6    7 1   
    14    6    8 1   
    15    6    9 1   
    16    6   10 1   
    17   10   11 1   
    18   11   12 1   
    19   11   38 1   
    20   11   39 1   
    21   12   13 1   
    22   12   21 1   
    23   12   40 1   
    24   13   14 1   
    25   13   41 1   
    26   13   42 1   
    27   14   15 1   
    28   15   16 2   
    29   15   17 1   
    30   17   18 1   
    31   17   43 1   
    32   17   44 1   
    33   18   19 1   
    34   18   45 1   
    35   18   46 1   
    36   19   20 1   
    37   19   47 1   
    38   19   48 1   
    39   20   49 1   
    40   20   50 1   
    41   20   51 1   
    42   21   22 1   
    43   22   23 2   
    44   22   24 1   
    45   24   25 1   
    46   24   52 1   
    47   24   53 1   
    48   25   26 1   
    49   25   54 1   
    50   25   55 1   
    51   26   27 1   
    52   26   56 1   
    53   26   57 1   
    54   27   28 1   
    55   27   58 1   
    56   27   59 1   
    57   28   29 1   
    58   28   60 1   
    59   28   61 1   
    60   29   30 1   
    61   29   62 1   
    62   29   63 1   
    63   30   64 1   
    64   30   65 1   
    65   30   66 1   
@<TRIPOS>SUBSTRUCTURE
     1 AGA         1 TEMP              0 ****  ****    0 ROOT
