@<TRIPOS>MOLECULE
molecule
   66    65     1     0     0
SMALL
bcc


@<TRIPOS>ATOM
      1 O1           0.0000     0.0000     0.0000 oh         1 AGA      -0.624800
      2 C1           1.4290     0.0000     0.0000 c3         1 AGA       0.098400
      3 C2           1.9390     0.0000     1.4430 c3         1 AGA       0.143100
      4 O2           1.5610     1.2210     2.0810 oh         1 AGA      -0.591800
      5 C3           3.4640    -0.1240     1.4440 c3         1 AGA       0.238400
      6 P1           5.4890    -0.3920     3.1680 p5         1 AGA       1.366800
      7 O3           6.0270    -1.7300     2.6140 o          1 AGA      -0.829000
      8 O4           6.2840     0.7790     2.5480 o          1 AGA      -0.829000
      9 O5           3.9310    -0.2420     2.7900 os         1 AGA      -0.594200
     10 O6           5.6570    -0.3660     4.7690 os         1 AGA      -0.579200
     11 C4           6.9310    -0.3740     5.4180 c3         1 AGA       0.233400
     12 C5           6.7300    -0.3440     6.9340 c3         1 AGA       0.139100
     13 C6           5.8620     0.8580     7.3100 c3         1 AGA       0.140400
     14 O7           4.6180     0.8090     6.5620 os         1 AGA      -0.361900
     15 C7           3.7380     1.8000     6.7790 c          1 AGA       0.632100
     16 O8           3.9980     2.6780     7.5670 o          1 AGA      -0.592000
     17 C8           2.4250     1.8160     6.0390 c3         1 AGA      -0.129400
     18 C9           1.6140     3.0410     6.4660 c3         1 AGA      -0.070400
     19 C10          0.2820     3.0570     5.7150 c3         1 AGA      -0.086400
     20 C11         -0.5290     4.2820     6.1410 c3         1 AGA      -0.090100
     21 O9           6.0740    -1.5670     7.3600 os         1 AGA      -0.386900
     22 C12          6.3540    -2.0110     8.5960 c          1 AGA       0.628100
     23 O10          7.1220    -1.3960     9.2980 o          1 AGA      -0.580000
     24 C13          5.7110    -3.2740     9.1070 c3         1 AGA      -0.127400
     25 C14          6.1960    -3.5530    10.5310 c3         1 AGA      -0.072400
     26 C15          5.5430    -4.8360    11.0500 c3         1 AGA      -0.084400
     27 C16          6.0280    -5.1150    12.4740 c3         1 AGA      -0.080400
     28 C17          5.3750    -6.3970    12.9920 c3         1 AGA      -0.082400
     29 C18          5.8590    -6.6770    14.4160 c3         1 AGA      -0.084400
     30 C19          5.2060    -7.9590    14.9360 c3         1 AGA      -0.092100
     31 HO1         -0.3140    -0.1370    -0.8780 ho         1 AGA       0.394000
     32 H11          1.7900     0.8840    -0.5110 h1         1 AGA       0.029200
     33 H12          1.7900    -0.8850    -0.5110 h1         1 AGA       0.029200
     34 H2           1.5080    -0.8370     1.9790 h1         1 AGA       0.046700
     35 HO2          0.6370     1.2050     2.2670 ho         1 AGA       0.393000
     36 H31          3.7550    -1.0040     0.8830 h1         1 AGA       0.040200
     37 H32          3.8990     0.7560     0.9870 h1         1 AGA       0.040200
     38 H41          7.4710    -1.2720     5.1430 h1         1 AGA       0.044700
     39 H42          7.4980     0.4960     5.1110 h1         1 AGA       0.044700
     40 H5           7.6930    -0.2610     7.4240 h1         1 AGA       0.071700
     41 H61          5.6470     0.8300     8.3720 h1         1 AGA       0.049700
     42 H62          6.3900     1.7740     7.0730 h1         1 AGA       0.049700
     43 H81          2.6120     1.8600     4.9730 hc         1 AGA       0.084700
     44 H82          1.8690     0.9160     6.2710 hc         1 AGA       0.084700
     45 H91          2.1710     3.9410     6.2340 hc         1 AGA       0.050200
     46 H92          1.4270     2.9970     7.5320 hc         1 AGA       0.050200
     47 H101         0.4690     3.1020     4.6490 hc         1 AGA       0.043200
     48 H102        -0.2750     2.1570     5.9460 hc         1 AGA       0.043200
     49 H111         0.0190     5.1830     5.8930 hc         1 AGA       0.028367
     50 H112        -1.4810     4.2840     5.6230 hc         1 AGA       0.028367
     51 H113        -0.7010     4.2480     7.2100 hc         1 AGA       0.028367
     52 H131         4.6350    -3.1560     9.1080 hc         1 AGA       0.072700
     53 H132         5.9830    -4.1020     8.4640 hc         1 AGA       0.072700
     54 H141         5.9260    -2.7240    11.1730 hc         1 AGA       0.055700
     55 H142         7.2730    -3.6720    10.5290 hc         1 AGA       0.055700
     56 H151         4.4660    -4.7170    11.0520 hc         1 AGA       0.040200
     57 H152         5.8140    -5.6650    10.4070 hc         1 AGA       0.040200
     58 H161         7.1040    -5.2330    12.4720 hc         1 AGA       0.042700
     59 H162         5.7560    -4.2860    13.1170 hc         1 AGA       0.042700
     60 H171         4.2980    -6.2790    12.9940 hc         1 AGA       0.040700
     61 H172         5.6460    -7.2260    12.3490 hc         1 AGA       0.040700
     62 H181         6.9360    -6.7950    14.4140 hc         1 AGA       0.039700
     63 H182         5.5890    -5.8480    15.0590 hc         1 AGA       0.039700
     64 H191         5.5270    -8.7990    14.3310 hc         1 AGA       0.030367
     65 H192         4.1280    -7.8640    14.8790 hc         1 AGA       0.030367
     66 H193         5.5000    -8.1230    15.9650 hc         1 AGA       0.030367
@<TRIPOS>BOND
     1     1     2 1
     2     1    31 1
     3     2     3 1
     4     2    32 1
     5     2    33 1
     6     3     4 1
     7     3     5 1
     8     3    34 1
     9     4    35 1
    10     5     9 1
    11     5    36 1
    12     5    37 1
    13     6     7 1
    14     6     8 1
    15     6     9 1
    16     6    10 1
    17    10    11 1
    18    11    12 1
    19    11    38 1
    20    11    39 1
    21    12    13 1
    22    12    21 1
    23    12    40 1
    24    13    14 1
    25    13    41 1
    26    13    42 1
    27    14    15 1
    28    15    16 2
    29    15    17 1
    30    17    18 1
    31    17    43 1
    32    17    44 1
    33    18    19 1
    34    18    45 1
    35    18    46 1
    36    19    20 1
    37    19    47 1
    38    19    48 1
    39    20    49 1
    40    20    50 1
    41    20    51 1
    42    21    22 1
    43    22    23 2
    44    22    24 1
    45    24    25 1
    46    24    52 1
    47    24    53 1
    48    25    26 1
    49    25    54 1
    50    25    55 1
    51    26    27 1
    52    26    56 1
    53    26    57 1
    54    27    28 1
    55    27    58 1
    56    27    59 1
    57    28    29 1
    58    28    60 1
    59    28    61 1
    60    29    30 1
    61    29    62 1
    62    29    63 1
    63    30    64 1
    64    30    65 1
    65    30    66 1
@<TRIPOS>SUBSTRUCTURE
     1 AGA         1 TEMP              0 ****  ****    0 ROOT
