@<TRIPOS>MOLECULE
AGB
   53    56     1     0     0
SMALL
bcc


@<TRIPOS>ATOM
      1 C1           0.0000     0.0000     0.0000 c3         1 AGB      -0.023367
      2 C2           1.5300     0.0000     0.0000 c3         1 AGB      -0.046067
      3 C3          -0.5110    -1.2480     0.7210 c3         1 AGB      -0.181733
      4 C4          -0.5100     1.2490     0.7200 c3         1 AGB      -0.046067
      5 C5           1.5300     1.2490     2.1620 c3         1 AGB      -0.046067
      6 C6           2.0390     0.0000     1.4410 c3         1 AGB      -0.023367
      7 C7           0.0000     1.2490     2.1620 c3         1 AGB      -0.023367
      8 C8           1.5290    -1.2490     2.1640 c3         1 AGB      -0.181733
      9 C9          -0.5100     0.0010     2.8850 c3         1 AGB      -0.181733
     10 C10         -0.0000    -1.2480     2.1640 c3         1 AGB       0.161400
     11 N1          -0.6140    -3.7560     4.7800 ns         1 AGB      -0.236900
     12 N2          -0.4890    -2.4440     2.8550 ns         1 AGB      -0.189900
     13 O1           0.5350    -1.8570     4.7350 o          1 AGB      -0.702100
     14 C11         -0.2590    -3.9880     6.1820 c3         1 AGB       0.123300
     15 C13         -2.1470    -5.2680     7.2110 ca         1 AGB      -0.035500
     16 C14         -0.8830    -5.2760     6.6520 ca         1 AGB      -0.087300
     17 C15         -0.1910    -6.4660     6.5210 ca         1 AGB      -0.035500
     18 C16         -0.7600    -7.6490     6.9500 ca         1 AGB      -0.136000
     19 C17         -2.0280    -7.6430     7.5150 ca         1 AGB      -0.082400
     20 C18         -2.7230    -6.4480     7.6390 ca         1 AGB      -0.136000
     21 N3          -2.6070    -8.8400     7.9490 nu         1 AGB      -0.282600
     22 C19         -3.3190    -8.8720     9.1260 c2         1 AGB       0.248100
     23 N5          -3.3630    -7.7600     9.9340 nz         1 AGB       0.160400
     24 H1          -0.3610    -0.0000    -1.0210 hc         1 AGB       0.034700
     25 H21          1.7890     1.0170    -0.2680 hc         1 AGB       0.026700
     26 H22          1.6520    -0.4760    -0.9660 hc         1 AGB       0.026700
     27 H31         -1.5940    -1.2470     0.7210 hc         1 AGB       0.075533
     28 H32         -0.1500    -2.1330     0.2110 hc         1 AGB       0.075533
     29 H41         -1.5930     1.2490     0.7200 hc         1 AGB       0.026700
     30 H42         -0.1480     2.1330     0.2090 hc         1 AGB       0.026700
     31 H51          1.8920     2.1340     1.6510 hc         1 AGB       0.026700
     32 H52          1.8920     1.2500     3.1830 hc         1 AGB       0.026700
     33 H6           3.1230    -0.0000     1.4410 hc         1 AGB       0.034700
     34 H7          -0.3610     2.1350     2.6710 hc         1 AGB       0.034700
     35 H81          2.4290    -1.4450     2.7340 hc         1 AGB       0.075533
     36 H82          1.0330    -0.3090     2.3740 hc         1 AGB       0.075533
     37 H91         -0.1490     0.0010     3.9060 hc         1 AGB       0.075533
     38 H92         -1.5930     0.0010     2.8850 hc         1 AGB       0.075533
     39 HN1         -1.1590    -4.4330     4.2830 hn         1 AGB       0.168500
     40 HN2         -1.0430    -3.1150     2.3610 hn         1 AGB       0.165500
     41 H111         0.8190    -4.0540     6.2760 h1         1 AGB       0.037200
     42 H112        -0.6240    -3.1680     6.7880 h1         1 AGB       0.037200
     43 H15          0.7980    -6.4710     6.0810 ha         1 AGB       0.131000
     44 H16         -0.2150    -8.5800     6.8500 ha         1 AGB       0.108500
     45 H18         -3.7140    -6.4390     8.0780 ha         1 AGB       0.108500
     46 HN3         -2.5140    -9.6700     7.3990 hn         1 AGB       0.329800
     47 HN4         -3.9230   -10.7660     8.8900 hn         1 AGB       0.377400
     48 HN51        -4.0980    -7.1540     9.6270 hn         1 AGB       0.234467
     49 HN52        -3.5350    -8.0410    10.8790 hn         1 AGB       0.234467
     50 C12         -0.1640    -2.6580     4.1450 c          1 AGB       0.588100
     51 N4          -3.9530    -9.9560     9.4760 n2         1 AGB      -0.617100
     52 H53         -2.4880    -7.2760     9.8840 hn         1 AGB       0.234467
     53 H13         -2.6890    -4.3350     7.3080 ha         1 AGB       0.131000
@<TRIPOS>BOND
     1     1     2 1   
     2     1     3 1   
     3     1     4 1   
     4     1    24 1   
     5     2     6 1   
     6     2    25 1   
     7     2    26 1   
     8     3    10 1   
     9     3    27 1   
    10     3    28 1   
    11     4     7 1   
    12     4    29 1   
    13     4    30 1   
    14     5     6 1   
    15     5     7 1   
    16     5    31 1   
    17     5    32 1   
    18     6     8 1   
    19     6    33 1   
    20     7     9 1   
    21     7    34 1   
    22     8    10 1   
    23     8    35 1   
    24     8    36 1   
    25     9    10 1   
    26     9    37 1   
    27     9    38 1   
    28    10    12 1   
    29    11    14 1   
    30    11    39 1   
    31    11    50 1   
    32    12    40 1   
    33    12    50 1   
    34    13    50 2   
    35    14    16 1   
    36    14    41 1   
    37    14    42 1   
    38    15    16 ar  
    39    15    20 ar  
    40    15    53 1   
    41    16    17 ar  
    42    17    18 ar  
    43    17    43 1   
    44    18    19 ar  
    45    18    44 1   
    46    19    20 ar  
    47    19    21 1   
    48    20    45 1   
    49    21    22 1   
    50    21    46 1   
    51    22    23 1   
    52    22    51 2   
    53    23    48 1   
    54    23    49 1   
    55    23    52 1   
    56    47    51 1   
@<TRIPOS>SUBSTRUCTURE
     1 AGB         1 TEMP              0 ****  ****    0 ROOT
