@<TRIPOS>MOLECULE
molecule
   37    38     1     0     0
SMALL
bcc


@<TRIPOS>ATOM
      1 N1           0.0000     0.0000     0.0000 na         1 AGE      -0.025100
      2 C2           7.7210    -0.0000     3.8060 ca         1 AGE      -0.127000
      3 N2          -3.8360     0.1060     4.7520 ns         1 AGE      -0.466400
      4 C4           5.6660     1.1970     3.5320 ca         1 AGE      -0.113000
      5 C5           4.9800     0.0000     3.4430 ca         1 AGE      -0.072300
      6 C6           5.6650    -1.1970     3.5350 ca         1 AGE      -0.113000
      7 O1          -5.1850    -0.0040     5.1670 oh         1 AGE      -0.362100
      8 O2          -4.3970    -0.1930     2.6220 o          1 AGE      -0.592100
      9 O3           4.0780    -0.0010     0.9600 o          1 AGE      -0.531100
     10 C1           7.0350    -1.1970     3.7160 ca         1 AGE      -0.126000
     11 C3           7.0360     1.1970     3.7130 ca         1 AGE      -0.126000
     12 C7           3.4870     0.0000     3.2450 c3         1 AGE      -0.126100
     13 C8           3.1750     0.0000     1.7700 c          1 AGE       0.606700
     14 C9           1.7810     0.0000     1.3150 cc         1 AGE      -0.272600
     15 C10          1.3430     0.0000     0.0000 cd         1 AGE      -0.064300
     16 C11         -0.8480    -0.0060    -1.1940 c3         1 AGE       0.024600
     17 C12         -0.4550     0.0000     1.3020 cd         1 AGE      -0.136100
     18 C13          0.6280     0.0010     2.1360 cc         1 AGE      -0.125000
     19 C14         -1.8560     0.0010     1.7180 cf         1 AGE       0.019800
     20 C15         -2.1710     0.1090     3.0320 ce         1 AGE      -0.263200
     21 C16         -3.5210    -0.0010     3.4460 c          1 AGE       0.685300
     22 H4           5.1300     2.1360     3.4600 ha         1 AGE       0.128000
     23 H6           5.1280    -2.1350     3.4640 ha         1 AGE       0.128000
     24 H1           7.5720    -2.1360     3.7880 ha         1 AGE       0.128000
     25 H3           7.5740     2.1350     3.7840 ha         1 AGE       0.128000
     26 H7           3.0610    -0.8840     3.7040 hc         1 AGE       0.069200
     27 H7A          3.0620     0.8850     3.7040 hc         1 AGE       0.069200
     28 H10          1.9770    -0.0000    -0.8790 h4         1 AGE       0.189000
     29 H11         -1.4360    -0.9160    -1.2150 h1         1 AGE       0.060700
     30 H11A        -0.2250     0.0410    -2.0790 h1         1 AGE       0.060700
     31 H11B        -1.5100     0.8510    -1.1720 h1         1 AGE       0.060700
     32 H13          0.6070     0.0020     3.2190 ha         1 AGE       0.154000
     33 H14         -2.6360    -0.1690     0.9870 ha         1 AGE       0.158000
     34 H15         -1.3850     0.1940     3.7710 ha         1 AGE       0.129000
     35 H151        -3.1340     0.3960     5.4040 hn         1 AGE       0.317500
     36 H16         -5.2350     0.0970     6.1030 ho         1 AGE       0.398000
     37 H2           8.7950    -0.0000     3.9490 ha         1 AGE       0.128000
@<TRIPOS>BOND
     1     1    17 1
     2     2    10 ar
     3     2    11 ar
     4     2    37 1
     5     3     7 1
     6     4     5 ar
     7     4    22 1
     8     5    12 1
     9     6     5 ar
    10     6    23 1
    11     8    21 2
    12    10     6 ar
    13    10    24 1
    14    11     4 ar
    15    11    25 1
    16    12    13 1
    17    12    26 1
    18    12    27 1
    19    13     9 2
    20    14    13 1
    21    14    18 1
    22    15     1 1
    23    15    14 2
    24    15    28 1
    25    16     1 1
    26    16    29 1
    27    16    30 1
    28    16    31 1
    29    17    19 1
    30    17    18 2
    31    18    32 1
    32    19    20 2
    33    19    33 1
    34    20    21 1
    35    20    34 1
    36    21     3 1
    37     3    35 1
    38     7    36 1
@<TRIPOS>SUBSTRUCTURE
     1 AGE         1 TEMP              0 ****  ****    0 ROOT
