@<TRIPOS>MOLECULE
AGE
   37    40     1     0     0
SMALL
bcc


@<TRIPOS>ATOM
      1 N1           0.0000     0.0000     0.0000 n3         1 AGE       0.382000
      2 C2           7.7210    -0.0000     3.8060 ca         1 AGE      -0.102000
      3 N2          -3.8360     0.1060     4.7520 n7         1 AGE       0.071000
      4 C4           5.6660     1.1970     3.5320 ca         1 AGE      -0.088500
      5 C5           4.9800     0.0000     3.4430 ca         1 AGE      -0.068000
      6 C6           5.6650    -1.1970     3.5350 ca         1 AGE      -0.088500
      7 O1          -5.1850    -0.0040     5.1670 oh         1 AGE      -0.240000
      8 O2          -4.3970    -0.1930     2.6220 o          1 AGE      -0.422000
      9 O3           4.0780    -0.0010     0.9600 o          1 AGE      -0.327000
     10 C1           7.0350    -1.1970     3.7160 ca         1 AGE      -0.098500
     11 C3           7.0360     1.1970     3.7130 ca         1 AGE      -0.098500
     12 C7           3.4870     0.0000     3.2450 c3         1 AGE      -0.094000
     13 C8           3.1750     0.0000     1.7700 c2         1 AGE       0.351000
     14 C9           1.7810     0.0000     1.3150 c2         1 AGE      -0.243000
     15 C10          1.3430     0.0000     0.0000 c2         1 AGE      -0.215000
     16 C11         -0.8480    -0.0060    -1.1940 c3         1 AGE      -0.122000
     17 C12         -0.4550     0.0000     1.3020 c3         1 AGE      -0.264000
     18 C13          0.6280     0.0010     2.1360 c2         1 AGE      -0.130000
     19 C14         -1.8560     0.0010     1.7180 c2         1 AGE       0.031000
     20 C15         -2.1710     0.1090     3.0320 c2         1 AGE      -0.186000
     21 C16         -3.5210    -0.0010     3.4460 c3         1 AGE       0.359000
     22 H4           5.1300     2.1360     3.4600 ha         1 AGE       0.102500
     23 H6           5.1280    -2.1350     3.4640 ha         1 AGE       0.102500
     24 H1           7.5720    -2.1360     3.7880 ha         1 AGE       0.100500
     25 H3           7.5740     2.1350     3.7840 ha         1 AGE       0.100500
     26 H7           3.0610    -0.8840     3.7040 hc         1 AGE       0.076500
     27 H7A          3.0620     0.8850     3.7040 hc         1 AGE       0.076500
     28 H10          1.9770    -0.0010    -0.8790 h4         1 AGE       0.162000
     29 H11         -1.5170    -0.8570    -1.1570 h1         1 AGE       0.069000
     30 H11A        -1.4270     0.9080    -1.2300 h1         1 AGE       0.069000
     31 H11B        -0.2260    -0.0750    -2.0780 h1         1 AGE       0.069000
     32 H13          0.6070     0.0020     3.2190 ha         1 AGE       0.140000
     33 H14         -1.2940     0.9190     1.5900 DU         1 AGE       0.120000
     34 H15         -2.8560     0.9470     2.9870 DU         1 AGE       0.036000
     35 H151        -3.1080     0.1920     5.4340 hn         1 AGE       0.078000
     36 H16         -5.2300     0.0520     6.1070 ho         1 AGE       0.192000
     37 H2           8.7950    -0.0000     3.9490 ha         1 AGE       0.100000
@<TRIPOS>BOND
     1     1    15 1   
     2     1    16 1   
     3     1    17 1   
     4     2    10 1   
     5     2    11 1   
     6     2    37 1   
     7     3     7 1   
     8     3    21 1   
     9     3    35 1   
    10     4     5 1   
    11     4    11 1   
    12     4    22 1   
    13     5     6 1   
    14     5    12 1   
    15     6    10 1   
    16     6    23 1   
    17     7    36 1   
    18     8    21 1   
    19     9    13 1   
    20    10    24 1   
    21    11    25 1   
    22    12    13 1   
    23    12    26 1   
    24    12    27 1   
    25    13    14 1   
    26    14    15 1   
    27    14    18 1   
    28    15    28 1   
    29    16    29 1   
    30    16    30 1   
    31    16    31 1   
    32    17    18 1   
    33    17    19 1   
    34    17    33 1   
    35    18    32 1   
    36    19    20 1   
    37    19    33 1   
    38    20    21 1   
    39    20    34 1   
    40    21    34 1   
@<TRIPOS>SUBSTRUCTURE
     1 AGE         1 TEMP              0 ****  ****    0 ROOT
