@<TRIPOS>MOLECULE
AGF
   55    56     1     0     0
SMALL
bcc


@<TRIPOS>ATOM
      1 C1           0.0000     0.0000     0.0000 c          1 AGF       0.672100
      2 O1           1.2150     0.0000     0.0000 o          1 AGF      -0.690000
      3 O1A         -0.6740     0.0000     1.1650 os         1 AGF      -0.431900
      4 CB1          0.0500    -0.0010     2.4230 c3         1 AGF       0.305700
      5 CG1         -0.9290    -0.0020     3.5670 ca         1 AGF      -0.101300
      6 CDB         -1.3780    -1.1970     4.0930 ca         1 AGF      -0.073000
      7 CDL         -1.3730     1.1960     4.0970 ca         1 AGF      -0.073000
      8 CEB         -2.2770    -1.1980     5.1420 ca         1 AGF      -0.113000
      9 CEL         -2.2760     1.1950     5.1440 ca         1 AGF      -0.113000
     10 CZ1         -2.7260    -0.0020     5.6680 ca         1 AGF      -0.105000
     11 C2          -0.7530     0.7130    -3.4870 c          1 AGF       0.529100
     12 O2          -1.8380     1.1730    -3.2030 o          1 AGF      -0.645100
     13 CA2          0.0600     0.0010    -2.4360 c3         1 AGF      -0.063300
     14 CB2          0.3140    -1.4410    -2.8780 c3         1 AGF      -0.013100
     15 N2          -0.6730     0.0010    -1.1680 ns         1 AGF      -0.107900
     16 CA3         -1.0650     1.5270    -5.7610 c3         1 AGF      -0.013200
     17 P3          -0.6490     3.3010    -5.7540 p5         1 AGF       0.618600
     18 O1P         -0.9530     3.8740    -4.4240 o          1 AGF      -0.655000
     19 O2P          0.9180     3.4860    -6.0720 o          1 AGF      -0.655000
     20 O3P         -1.5180     4.0610    -6.8760 os         1 AGF      -0.434200
     21 CA4         -1.1490     5.4400    -6.8210 c3         1 AGF       0.126100
     22 C4          -2.3620     6.2740    -6.5000 c          1 AGF       0.982600
     23 O41         -3.4340     5.7410    -6.3370 o          1 AGF      -0.921800
     24 O42         -2.2530     7.6070    -6.3980 o          1 AGF      -0.921800
     25 CB4         -0.5770     5.8690    -8.1750 c3         1 AGF       0.009900
     26 CG4          0.6360     5.0370    -8.4950 ca         1 AGF      -0.007300
     27 CDE          0.4970     3.8510    -9.1910 ca         1 AGF      -0.073500
     28 CDO          1.8900     5.4620    -8.0970 ca         1 AGF      -0.073500
     29 CEE          1.6100     3.0870    -9.4840 ca         1 AGF      -0.110500
     30 CEO          3.0030     4.6950    -8.3870 ca         1 AGF      -0.110500
     31 CZ4          2.8630     3.5080    -9.0830 ca         1 AGF      -0.140000
     32 HB11         0.6730     0.8840     2.4810 h1         1 AGF       0.007700
     33 HB12         0.6740    -0.8850     2.4800 h1         1 AGF       0.007700
     34 HD11        -1.0270    -2.1350     3.6810 ha         1 AGF       0.110000
     35 HD12        -1.0200     2.1340     3.6860 ha         1 AGF       0.110000
     36 HE11        -2.6290    -2.1370     5.5530 ha         1 AGF       0.097000
     37 HE12        -2.6260     2.1330     5.5580 ha         1 AGF       0.097000
     38 HZ1         -3.4320    -0.0020     6.4900 ha         1 AGF       0.093000
     39 HA2          1.0070     0.5110    -2.3050 h1         1 AGF       0.077700
     40 HB21        -0.2260    -1.6370    -3.7960 hc         1 AGF       0.003033
     41 HB22        -0.0260    -2.1210    -2.1060 hc         1 AGF       0.003033
     42 HB23         1.3750    -1.5860    -3.0450 hc         1 AGF       0.003033
     43 HN2         -1.6730    -0.0390    -1.1690 hn         1 AGF       0.191500
     44 HA31        -0.8420     1.1080    -6.7350 h1         1 AGF       0.028200
     45 HA32        -2.1200     1.4030    -5.5470 h1         1 AGF       0.028200
     46 HN3          0.6280     0.4700    -4.9690 hn         1 AGF       0.146500
     47 HA4         -0.4000     5.5830    -6.0520 h1         1 AGF       0.047700
     48 HB41        -0.2970     6.9150    -8.1330 hc         1 AGF       0.011700
     49 HB42        -1.3260     5.7270    -8.9440 hc         1 AGF       0.011700
     50 HD41        -0.4850     3.5200    -9.5060 ha         1 AGF       0.097000
     51 HD42         1.9990     6.3920    -7.5530 ha         1 AGF       0.097000
     52 HE41         1.5000     2.1570   -10.0290 ha         1 AGF       0.067000
     53 HE42         3.9860     5.0270    -8.0740 ha         1 AGF       0.067000
     54 HZ4          3.7360     2.9080    -9.3120 ha         1 AGF       0.065000
     55 N3          -0.2750     0.8360    -4.7390 ns         1 AGF      -0.065900
@<TRIPOS>BOND
     1     1     2 2   
     2     1     3 1   
     3     1    15 1   
     4     3     4 1   
     5     4     5 1   
     6     4    32 1   
     7     4    33 1   
     8     5     6 ar  
     9     5     7 ar  
    10     6     8 ar  
    11     6    34 1   
    12     7     9 ar  
    13     7    35 1   
    14     8    10 ar  
    15     8    36 1   
    16     9    10 ar  
    17     9    37 1   
    18    10    38 1   
    19    11    12 2   
    20    11    13 1   
    21    11    55 1   
    22    13    14 1   
    23    13    15 1   
    24    13    39 1   
    25    14    40 1   
    26    14    41 1   
    27    14    42 1   
    28    15    43 1   
    29    16    17 1   
    30    16    44 1   
    31    16    45 1   
    32    16    55 1   
    33    17    18 1   
    34    17    19 1   
    35    17    20 1   
    36    20    21 1   
    37    21    22 1   
    38    21    25 1   
    39    21    47 1   
    40    22    23 1   
    41    22    24 1   
    42    25    26 1   
    43    25    48 1   
    44    25    49 1   
    45    26    27 ar  
    46    26    28 ar  
    47    27    29 ar  
    48    27    50 1   
    49    28    30 ar  
    50    28    51 1   
    51    29    31 ar  
    52    29    52 1   
    53    30    31 ar  
    54    30    53 1   
    55    31    54 1   
    56    46    55 1   
@<TRIPOS>SUBSTRUCTURE
     1 AGF         1 TEMP              0 ****  ****    0 ROOT
