@<TRIPOS>MOLECULE
AGG
   65    66     1     0     0
SMALL
bcc


@<TRIPOS>ATOM
      1 C1           0.0000     0.0000     0.0000 c3         1 AGG       0.006900
      2 C2           1.5300     0.0000     0.0000 c3         1 AGG      -0.030400
      3 C3           2.0410     0.0000     1.4420 c3         1 AGG       0.002600
      4 C4           3.5700    -0.0010     1.4420 c3         1 AGG      -0.022600
      5 S1           4.1750    -0.0020     3.1520 s6         1 AGG       0.931900
      6 O1           3.9300     1.2410     3.7940 o          1 AGG      -0.607800
      7 O2           3.9290    -1.2460     3.7930 o          1 AGG      -0.607800
      8 N            5.8200    -0.0020     2.9690 n7         1 AGG      -0.543100
      9 CA           6.4790     1.0950     2.2590 c3         1 AGG       0.095500
     10 CB           7.4680     1.7900     3.1970 c3         1 AGG       0.030900
     11 CG           6.7290     2.3350     4.3920 ca         1 AGG      -0.080300
     12 CD1          6.5650     1.5530     5.5190 ca         1 AGG      -0.046500
     13 CE1          5.8870     2.0500     6.6150 ca         1 AGG      -0.183500
     14 CZ           5.3720     3.3370     6.5830 ca         1 AGG       0.113100
     15 OH           4.7050     3.8300     7.6600 os         1 AGG      -0.293900
     16 CE2          5.5380     4.1210     5.4520 ca         1 AGG      -0.183500
     17 CD2          6.2210     3.6200     4.3600 ca         1 AGG      -0.046500
     18 C            7.2190     0.5490     1.0640 c          1 AGG       0.958600
     19 O            7.3630     1.2330     0.0790 o          1 AGG      -0.886800
     20 OXT          7.7170    -0.6970     1.0960 o          1 AGG      -0.886800
     21 C11          4.3030     5.1600     7.3240 c3         1 AGG       0.176400
     22 C12          3.5430     5.7750     8.5010 c3         1 AGG      -0.040400
     23 C13          3.1130     7.1980     8.1420 c3         1 AGG      -0.033400
     24 C14          2.3540     7.8140     9.3190 c3         1 AGG      -0.023400
     25 C15          1.9240     9.2360     8.9600 c3         1 AGG      -0.052700
     26 C16          1.1630     9.8560    10.1370 c3         1 AGG      -0.026400
     27 C17          0.8360    11.3140     9.8140 c3         1 AGG       0.140800
     28 N18          2.0780    12.0690     9.6210 n7         1 AGG      -0.572200
     29 C18          2.7320    11.5360     8.4220 c3         1 AGG       0.140800
     30 C19          3.1620    10.0880     8.6680 c3         1 AGG      -0.026400
     31 H11         -0.3610    -0.8740     0.5290 hc         1 AGG      -0.003967
     32 H12         -0.3610     0.8950     0.4930 hc         1 AGG      -0.003967
     33 H13         -0.3610    -0.0210    -1.0210 hc         1 AGG      -0.003967
     34 H21          1.8910     0.8840    -0.5110 hc         1 AGG       0.016700
     35 H22          1.8910    -0.8840    -0.5110 hc         1 AGG       0.016700
     36 H31          1.6790    -0.8840     1.9530 hc         1 AGG       0.018700
     37 H32          1.6810     0.8850     1.9520 hc         1 AGG       0.018700
     38 H41          3.9300    -0.8860     0.9310 h1         1 AGG       0.083700
     39 H42          3.9320     0.8830     0.9310 h1         1 AGG       0.083700
     40 H            6.3630    -0.7660     3.3220 hn         1 AGG       0.364800
     41 HA           5.7350     1.8080     1.9270 h1         1 AGG       0.024700
     42 HB1          8.2140     1.0770     3.5290 hc         1 AGG       0.024700
     43 HB2          7.9550     2.6020     2.6720 hc         1 AGG       0.024700
     44 HD1          7.0020     0.5620     5.5580 ha         1 AGG       0.100500
     45 HE1          5.8150     1.4610     7.5210 ha         1 AGG       0.108000
     46 HE2          5.1800     5.1440     5.4440 ha         1 AGG       0.108000
     47 HD2          6.4190     4.4210     3.6580 ha         1 AGG       0.100500
     48 H111         3.6600     5.1330     6.4530 h1         1 AGG       0.011700
     49 H112         5.1800     5.7580     7.1080 h1         1 AGG       0.011700
     50 H121         4.1870     5.8010     9.3720 hc         1 AGG       0.020700
     51 H122         2.6670     5.1760     8.7180 hc         1 AGG       0.020700
     52 H131         2.4690     7.1720     7.2710 hc         1 AGG       0.018200
     53 H132         3.9900     7.7960     7.9250 hc         1 AGG       0.018200
     54 H141         1.4780     7.2150     9.5360 hc         1 AGG       0.017200
     55 H142         2.9980     7.8400    10.1890 hc         1 AGG       0.017200
     56 H15          1.2840     9.2180     8.0860 hc         1 AGG       0.027700
     57 H161         0.2430     9.3080    10.2990 hc         1 AGG       0.023450
     58 H162         1.7780     9.8120    11.0270 hc         1 AGG       0.023450
     59 H171         0.2460    11.3570     8.9070 h1         1 AGG       0.002950
     60 H172         0.2780    11.7470    10.6350 h1         1 AGG       0.002950
     61 H18          1.8620    13.0370     9.4810 hn         1 AGG       0.245800
     62 H181         2.0380    11.5680     7.5910 h1         1 AGG       0.002950
     63 H182         3.6050    12.1350     8.1920 h1         1 AGG       0.002950
     64 H191         3.8340    10.0510     9.5160 hc         1 AGG       0.023450
     65 H192         3.6620     9.7060     7.7860 hc         1 AGG       0.023450
@<TRIPOS>BOND
     1     1     2 1   
     2     1    31 1   
     3     1    32 1   
     4     1    33 1   
     5     2     3 1   
     6     2    34 1   
     7     2    35 1   
     8     3     4 1   
     9     3    36 1   
    10     3    37 1   
    11     4     5 1   
    12     4    38 1   
    13     4    39 1   
    14     5     6 2   
    15     5     7 2   
    16     5     8 1   
    17     8     9 1   
    18     8    40 1   
    19     9    10 1   
    20     9    18 1   
    21     9    41 1   
    22    10    11 1   
    23    10    42 1   
    24    10    43 1   
    25    11    12 ar  
    26    11    17 ar  
    27    12    13 ar  
    28    12    44 1   
    29    13    14 ar  
    30    13    45 1   
    31    14    15 1   
    32    14    16 ar  
    33    15    21 1   
    34    16    17 ar  
    35    16    46 1   
    36    17    47 1   
    37    18    19 1   
    38    18    20 1   
    39    21    22 1   
    40    21    48 1   
    41    21    49 1   
    42    22    23 1   
    43    22    50 1   
    44    22    51 1   
    45    23    24 1   
    46    23    52 1   
    47    23    53 1   
    48    24    25 1   
    49    24    54 1   
    50    24    55 1   
    51    25    26 1   
    52    25    30 1   
    53    25    56 1   
    54    26    27 1   
    55    26    57 1   
    56    26    58 1   
    57    27    28 1   
    58    27    59 1   
    59    27    60 1   
    60    28    29 1   
    61    28    61 1   
    62    29    30 1   
    63    29    62 1   
    64    29    63 1   
    65    30    64 1   
    66    30    65 1   
@<TRIPOS>SUBSTRUCTURE
     1 AGG         1 TEMP              0 ****  ****    0 ROOT
