@<TRIPOS>MOLECULE
molecule
   30    32     1     0     0
SMALL
bcc


@<TRIPOS>ATOM
      1 CAG          0.0000     0.0000     0.0000 ca         1 AGI      -0.080000
      2 CAE          1.3770     0.0000     0.0000 ca         1 AGI      -0.158500
      3 CAM          2.0740     0.0000     1.2030 ca         1 AGI       0.128100
      4 OAB          3.4310    -0.0010     1.1980 oh         1 AGI      -0.520100
      5 CAF          1.3850     0.0010     2.4100 ca         1 AGI      -0.158500
      6 CAH          0.0080     0.0020     2.4190 ca         1 AGI      -0.080000
      7 CAP         -0.6970     0.0020     1.2120 ca         1 AGI      -0.081800
      8 CAQ         -2.1720     0.0030     1.2170 cc         1 AGI       0.203900
      9 OAL         -2.8210     0.0020     0.0430 os         1 AGI      -0.213200
     10 CAJ         -2.8220    -0.0010     2.4120 cd         1 AGI      -0.335200
     11 CAR         -4.2370    -0.0010     2.4370 c          1 AGI       0.583900
     12 OAA         -4.8520    -0.0040     3.4900 o          1 AGI      -0.523100
     13 CAT         -4.9370     0.0050     1.1400 ca         1 AGI      -0.261600
     14 CAS         -4.1690     0.0040    -0.0360 ca         1 AGI       0.192100
     15 CAK         -4.8090     0.0040    -1.2670 ca         1 AGI      -0.208000
     16 CAN         -6.1930     0.0050    -1.3290 ca         1 AGI       0.183100
     17 OAC         -6.8120     0.0050    -2.5380 oh         1 AGI      -0.517100
     18 CAI         -6.9550     0.0050    -0.1650 ca         1 AGI      -0.254000
     19 CAO         -6.3360     0.0060     1.0700 ca         1 AGI       0.219100
     20 OAD         -7.0780     0.0020     2.2060 oh         1 AGI      -0.478100
     21 HAG         -0.5420    -0.0000    -0.9380 ha         1 AGI       0.148500
     22 HAE          1.9180    -0.0020    -0.9390 ha         1 AGI       0.148000
     23 HOAB         3.7450    -0.8900     1.1980 ho         1 AGI       0.425000
     24 HAF          1.9320     0.0010     3.3450 ha         1 AGI       0.148000
     25 HAH         -0.5280     0.0030     3.3610 ha         1 AGI       0.148500
     26 HAJ         -2.2650    -0.1280     3.3320 ha         1 AGI       0.170000
     27 HAK         -4.2250     0.0090    -2.1800 ha         1 AGI       0.158000
     28 HOAC        -6.9560    -0.8840    -2.8170 ho         1 AGI       0.430000
     29 HAI         -8.0370     0.0060    -0.2280 ha         1 AGI       0.154000
     30 HOAD        -7.6680     0.7370     2.1990 ho         1 AGI       0.429000
@<TRIPOS>BOND
     1     1     2 ar
     2     1     7 ar
     3     2     3 ar
     4     3     4 1
     5     3     5 ar
     6     5     6 ar
     7     6     7 ar
     8     7     8 1
     9     8     9 1
    10     8    10 2
    11     9    14 1
    12    10    11 1
    13    11    12 2
    14    11    13 1
    15    13    14 ar
    16    13    19 ar
    17    14    15 ar
    18    15    16 ar
    19    16    17 1
    20    16    18 ar
    21    18    19 ar
    22    19    20 1
    23     1    21 1
    24     2    22 1
    25     4    23 1
    26     5    24 1
    27     6    25 1
    28    10    26 1
    29    15    27 1
    30    17    28 1
    31    18    29 1
    32    20    30 1
@<TRIPOS>SUBSTRUCTURE
     1 AGI         1 TEMP              0 ****  ****    0 ROOT
