@<TRIPOS>MOLECULE
AGI
   30    32     1     0     0
SMALL
bcc


@<TRIPOS>ATOM
      1 CAG        -0.0600   -0.3540    0.0390 ca        1 AGI     -0.055500
      2 CAE         1.3240   -0.3250   -0.0660 ca        1 AGI     -0.193500
      3 CAM         2.0860    0.0730    1.0480 ca        1 AGI      0.147100
      4 OAB         3.4500    0.0800    0.8850 oh        1 AGI     -0.491100
      5 CAF         1.4640    0.4410    2.2490 ca        1 AGI     -0.193500
      6 CAH         0.0760    0.4080    2.3380 ca        1 AGI     -0.055500
      7 CAP        -0.6960    0.0050    1.2390 ca        1 AGI     -0.113800
      8 CAQ        -2.1520   -0.0430    1.3520 cc        1 AGI      0.193900
      9 OAL        -2.7590    0.1380    0.1130 os        1 AGI     -0.225200
     10 CAJ        -2.8480   -0.2450    2.4910 cd        1 AGI     -0.315200
     11 CAR        -4.3130   -0.2750    2.5240 c         1 AGI      0.597900
     12 OAA        -4.9410   -0.4440    3.5770 o         1 AGI     -0.526100
     13 CAT        -4.9410   -0.0880    1.2120 ca        1 AGI     -0.276600
     14 CAS        -4.1420    0.1080    0.0700 ca        1 AGI      0.210100
     15 CAK        -4.6790    0.2910   -1.2120 ca        1 AGI     -0.232000
     16 CAN        -6.0730    0.2760   -1.3440 ca        1 AGI      0.216100
     17 OAC        -6.5630    0.4580   -2.6120 oh        1 AGI     -0.485100
     18 CAI        -6.9150    0.0840   -0.2380 ca        1 AGI     -0.349000
     19 CAO        -6.3440   -0.0950    1.0280 ca        1 AGI      0.247100
     20 OAD        -7.1130   -0.2860    2.1410 oh        1 AGI     -0.448100
     21 HAG        -0.6690   -0.6590   -0.8270 ha        1 AGI      0.149000
     22 HAE         1.8330   -0.6070   -0.9980 ha        1 AGI      0.148500
     23 HOAB        3.8510    0.3700    1.7180 ho        1 AGI      0.424000
     24 HAF         2.0660    0.7560    3.1130 ha        1 AGI      0.148500
     25 HAH        -0.4160    0.7050    3.2780 ha        1 AGI      0.149000
     26 HAJ        -2.3350   -0.4050    3.4510 ha        1 AGI      0.167000
     27 HAK        -4.0290    0.4430   -2.0830 ha        1 AGI      0.173000
     28 HOAC       -7.5310    0.4280   -2.5710 ho        1 AGI      0.427000
     29 HAI        -8.0060    0.0760   -0.3630 ha        1 AGI      0.143000
     30 HOAD       -8.0450   -0.2690    1.8730 ho        1 AGI      0.421000
@<TRIPOS>BOND
     1    1    2 ar  
     2    1    7 ar  
     3    1   21 1   
     4    2    3 ar  
     5    2   22 1   
     6    3    4 1   
     7    3    5 ar  
     8    4   23 1   
     9    5    6 ar  
    10    5   24 1   
    11    6    7 ar  
    12    6   25 1   
    13    7    8 1   
    14    8    9 1   
    15    8   10 2   
    16    9   14 1   
    17   10   11 1   
    18   10   26 1   
    19   11   12 2   
    20   11   13 1   
    21   13   14 ar  
    22   13   19 ar  
    23   14   15 ar  
    24   15   16 ar  
    25   15   27 1   
    26   16   17 1   
    27   16   18 ar  
    28   17   28 1   
    29   18   19 ar  
    30   18   29 1   
    31   19   20 1   
    32   20   30 1   
@<TRIPOS>SUBSTRUCTURE
     1 AGI         1 TEMP              0 ****  ****    0 ROOT
