@<TRIPOS>MOLECULE
molecule
   44    45     1     0     0
SMALL
bcc


@<TRIPOS>ATOM
      1 O01          0.0000     0.0000     0.0000 o          1 AGJ      -0.596100
      2 C02          1.2120     0.0000     0.0000 c          1 AGJ       0.661100
      3 C03          1.9670     0.0000     1.3050 c3         1 AGJ      -0.110100
      4 C04          0.9870    -0.0000     2.4500 ca         1 AGJ      -0.069300
      5 C05          0.5330     1.1970     2.9720 ca         1 AGJ      -0.110000
      6 C06         -0.3640     1.1960     4.0230 ca         1 AGJ      -0.126000
      7 C07         -0.8090    -0.0010     4.5510 ca         1 AGJ      -0.125000
      8 C08         -0.3560    -1.1980     4.0290 ca         1 AGJ      -0.126000
      9 C09          0.5390    -1.1970     2.9760 ca         1 AGJ      -0.110000
     10 N10          1.8870    -0.0060    -1.1670 n          1 AGJ      -0.481800
     11 C11          3.3510    -0.0050    -1.1670 c3         1 AGJ       0.102000
     12 C12          3.8620    -1.4470    -1.1610 c3         1 AGJ       0.116400
     13 O13          3.4840    -2.0920    -2.3790 oh         1 AGJ      -0.608800
     14 C14          1.1540    -0.0120    -2.4360 c3         1 AGJ       0.153300
     15 C15          0.9020     1.4070    -2.8790 ca         1 AGJ      -0.089300
     16 C16          1.8260     2.0530    -3.6800 ca         1 AGJ      -0.122000
     17 C17          1.6020     3.3510    -4.0880 ca         1 AGJ      -0.092000
     18 C18          0.4390     4.0140    -3.6900 ca         1 AGJ      -0.139600
     19 C19          0.1930     5.4060    -4.1230 c          1 AGJ       0.687700
     20 O20          1.0020     5.9750    -4.8280 o          1 AGJ      -0.576100
     21 N21         -0.9310     6.0420    -3.7370 ns         1 AGJ      -0.471400
     22 O22         -1.1680     7.3750    -4.1520 oh         1 AGJ      -0.361100
     23 C23         -0.4890     3.3570    -2.8800 ca         1 AGJ      -0.092000
     24 C24         -0.2550     2.0560    -2.4840 ca         1 AGJ      -0.122000
     25 H1           2.5900    -0.8850     1.3620 hc         1 AGJ       0.064700
     26 H2           2.5900     0.8850     1.3620 hc         1 AGJ       0.064700
     27 H3           0.8820     2.1350     2.5580 ha         1 AGJ       0.127500
     28 H4          -0.7200     2.1340     4.4330 ha         1 AGJ       0.129000
     29 H5          -1.5110    -0.0010     5.3760 ha         1 AGJ       0.128000
     30 H6          -0.7060    -2.1360     4.4420 ha         1 AGJ       0.129000
     31 H7           0.8940    -2.1350     2.5660 ha         1 AGJ       0.127500
     32 H8           3.7120     0.5030    -2.0540 h1         1 AGJ       0.062200
     33 H9           3.7120     0.5100    -0.2850 h1         1 AGJ       0.062200
     34 H10          4.9420    -1.4480    -1.0730 h1         1 AGJ       0.028700
     35 H11          3.4310    -1.9800    -0.3220 h1         1 AGJ       0.028700
     36 H12          4.0010    -2.8720    -2.4950 ho         1 AGJ       0.406000
     37 H13          0.2080    -0.5220    -2.3040 h1         1 AGJ       0.077700
     38 H14          1.7400    -0.5260    -3.1890 h1         1 AGJ       0.077700
     39 H15          2.7280     1.5370    -3.9880 ha         1 AGJ       0.147000
     40 H16          2.3270     3.8560    -4.7150 ha         1 AGJ       0.140500
     41 H17         -1.5900     5.5780    -3.1440 hn         1 AGJ       0.322500
     42 H18         -2.0330     7.6390    -3.8840 ho         1 AGJ       0.398000
     43 H19         -1.3940     3.8640    -2.5690 ha         1 AGJ       0.140500
     44 H20         -0.9740     1.5450    -1.8560 ha         1 AGJ       0.147000
@<TRIPOS>BOND
     1    22    21 1
     2    21    19 1
     3    19    20 2
     4    19    18 1
     5    23    18 ar
     6    23    24 ar
     7    18    17 ar
     8    24    15 ar
     9    11    12 1
    10    11    10 1
    11     1     2 2
    12    17    16 ar
    13    12    13 1
    14    10     2 1
    15    10    14 1
    16    15    16 ar
    17    15    14 1
    18     2     3 1
    19     5     6 ar
    20     5     4 ar
    21     6     7 ar
    22     3     4 1
    23     4     9 ar
    24     7     8 ar
    25     9     8 ar
    26     3    25 1
    27     3    26 1
    28     5    27 1
    29     6    28 1
    30     7    29 1
    31     8    30 1
    32     9    31 1
    33    11    32 1
    34    11    33 1
    35    12    34 1
    36    12    35 1
    37    13    36 1
    38    14    37 1
    39    14    38 1
    40    16    39 1
    41    17    40 1
    42    21    41 1
    43    22    42 1
    44    23    43 1
    45    24    44 1
@<TRIPOS>SUBSTRUCTURE
     1 AGJ         1 TEMP              0 ****  ****    0 ROOT
