@<TRIPOS>MOLECULE
AGK
   22    22     1     0     0
SMALL
bcc


@<TRIPOS>ATOM
      1 O2           0.0000     0.0000     0.0000 oh         1 AGK      -0.561800
      2 C4           1.4300     0.0000     0.0000 c3         1 AGK       0.181100
      3 C3           1.9410     0.0000     1.4430 c3         1 AGK       0.169100
      4 O1           1.4040    -1.1260     2.1400 oh         1 AGK      -0.578800
      5 C2           1.4950     1.2900     2.1340 c3         1 AGK       0.138800
      6 N1           2.0030     2.4460     1.3810 n7         1 AGK      -0.452000
      7 C5           1.9410     1.2540    -0.7140 c3         1 AGK       0.116500
      8 C6           1.3860     1.2940    -2.1390 c3         1 AGK       0.223400
      9 O            1.9560     2.4000    -2.8420 oh         1 AGK      -0.600800
     10 N            1.4950     2.4470     0.0190 n7         1 AGK      -0.431000
     11 H2          -0.3140    -0.8520    -0.2540 ho         1 AGK       0.387000
     12 H4           1.7960    -0.8810    -0.5120 h1         1 AGK       0.000700
     13 H3           3.0230    -0.0520     1.4410 h1         1 AGK       0.008700
     14 H5           3.0240     1.2350    -0.7430 h1         1 AGK       0.023700
     15 H1           2.1070    -1.6200     2.5280 ho         1 AGK       0.387000
     16 H21C         0.4130     1.3270     2.1640 h1         1 AGK       0.025200
     17 H22C         1.8920     1.3150     3.1420 h1         1 AGK       0.025200
     18 HA           1.7270     3.2910     1.8400 hn         1 AGK       0.268800
     19 H            1.8140     3.2690    -0.4560 hn         1 AGK       0.278800
     20 H61C         0.3090     1.4040    -2.1050 h1         1 AGK      -0.001800
     21 H62C         1.6390     0.3730    -2.6510 h1         1 AGK      -0.001800
     22 HB           1.7400     2.3360    -3.7570 ho         1 AGK       0.394000
@<TRIPOS>BOND
     1     1     2 1   
     2     1    11 1   
     3     2     3 1   
     4     2     7 1   
     5     2    12 1   
     6     3     4 1   
     7     3     5 1   
     8     3    13 1   
     9     4    15 1   
    10     5     6 1   
    11     5    16 1   
    12     5    17 1   
    13     6    10 1   
    14     6    18 1   
    15     7     8 1   
    16     7    10 1   
    17     7    14 1   
    18     8     9 1   
    19     8    20 1   
    20     8    21 1   
    21     9    22 1   
    22    10    19 1   
@<TRIPOS>SUBSTRUCTURE
     1 AGK         1 TEMP              0 ****  ****    0 ROOT
