@<TRIPOS>MOLECULE
AGN
   62    64     1     0     0
SMALL
bcc


@<TRIPOS>ATOM
      1 PG         -1.5810    0.3910    0.7690 p4        1 AGN      1.523300
      2 O1G        -1.5780    1.8350    1.0840 o         1 AGN     -0.826833
      3 O2G        -1.5820   -0.5910    1.8710 o         1 AGN     -0.826833
      4 O3G        -1.1900   -0.0430   -0.5890 o         1 AGN     -0.875633
      5 N3B        -3.9670    0.7950   -0.2440 n3        1 AGN     -1.102900
      6 PB         -5.5330    0.4200   -0.1940 p5        1 AGN      1.559700
      7 O1B        -6.2050    0.9600    1.0190 o         1 AGN     -0.877500
      8 O2B        -5.7960   -0.9620   -0.6640 o         1 AGN     -0.877500
      9 O3A        -6.2300    1.4060   -1.4290 os        1 AGN     -0.810800
     10 PA         -7.1780    2.3440   -2.2560 p5        1 AGN      1.616800
     11 O1A        -8.5560    2.4540   -1.6950 o         1 AGN     -0.906500
     12 O2A        -7.0600    2.3280   -3.7380 o         1 AGN     -0.906500
     13 O5'        -6.5790    3.8630   -1.8310 os        1 AGN     -0.576200
     14 C5B        -6.4270    4.8060   -2.8190 c3        1 AGN      0.200400
     15 C4B        -7.5590    5.8570   -2.7940 c3        1 AGN      0.093100
     16 O4'        -7.4520    6.6650   -3.9890 os        1 AGN     -0.430600
     17 C3B        -8.9820    5.2640   -2.7700 c3        1 AGN      0.102100
     18 O3'        -9.6110    5.7880   -1.5900 os        1 AGN     -0.435900
     19 C2B        -9.6480    5.7080   -4.0690 c3        1 AGN     -0.129400
     20 C1B        -8.5360    6.4070   -4.8790 c3        1 AGN      0.248800
     21 C'        -10.8750    5.3490   -1.2870 c         1 AGN      0.684700
     22 O1'       -11.6430    5.0850   -2.2190 o         1 AGN     -0.575000
     23 C1'       -11.1840    5.3880    0.1490 ca        1 AGN     -0.259600
     24 C2'       -10.4110    4.6440    1.1030 ca        1 AGN      0.277600
     25 N2'        -9.4260    3.7970    0.7360 nh        1 AGN     -0.697600
     26 CM'        -8.6630    3.0430    1.6880 c3        1 AGN      0.169100
     27 C3'       -10.7670    4.8340    2.4870 ca        1 AGN     -0.255000
     28 C4'       -11.8200    5.6400    2.8540 ca        1 AGN     -0.064000
     29 C5'       -12.5930    6.3120    1.8970 ca        1 AGN     -0.285000
     30 C6'       -12.2600    6.1750    0.5560 ca        1 AGN     -0.026000
     31 N9         -8.1020    5.6700   -6.0610 na        1 AGN     -0.198900
     32 C8         -7.6810    4.3240   -6.2040 cc        1 AGN      0.467400
     33 N7         -7.3800    4.0050   -7.4840 nd        1 AGN     -0.629000
     34 C5         -7.5880    5.1720   -8.2160 cd        1 AGN      0.209800
     35 C6         -7.4360    5.4400   -9.6290 c         1 AGN      0.644000
     36 O6         -7.0920    4.6710  -10.5450 o         1 AGN     -0.644500
     37 N1         -7.7230    6.7800  -10.0010 n         1 AGN     -0.497400
     38 C2         -8.1590    7.7450   -9.0710 cd        1 AGN      0.581800
     39 N2         -8.4780    9.0430   -9.6190 nh        1 AGN     -0.864800
     40 N3         -8.3130    7.5250   -7.7580 nc        1 AGN     -0.621100
     41 C4         -8.0320    6.2310   -7.3420 cc        1 AGN      0.038800
     42 HNB3       -3.4020    0.4610   -0.9890 hn        1 AGN      0.415800
     43 H5'2       -6.3800    4.3350   -3.8400 h1        1 AGN      0.031200
     44 H5'1       -5.4650    5.3670   -2.6350 h1        1 AGN      0.031200
     45 H4B        -7.4120    6.5710   -1.9400 h1        1 AGN      0.075700
     46 H3B        -8.9570    4.1310   -2.6670 h1        1 AGN      0.170700
     47 H2'1      -10.4690    6.4400   -3.8680 hc        1 AGN      0.075700
     48 H2'2      -10.0910    4.8280   -4.5950 hc        1 AGN      0.075700
     49 H1'        -8.8680    7.4280   -5.2330 h2        1 AGN      0.076700
     50 HN2'       -9.2270    3.6200   -0.2460 hn        1 AGN      0.526800
     51 HM'1       -9.3380    2.4010    2.3150 h1        1 AGN      0.066700
     52 HM'2       -8.0940    3.7320    2.3680 h1        1 AGN      0.066700
     53 HM'3       -7.9250    2.3730    1.1470 h1        1 AGN      0.066700
     54 H3'       -10.1780    4.3210    3.2610 ha        1 AGN      0.133000
     55 H4'       -12.0650    5.7580    3.9200 ha        1 AGN      0.094000
     56 H5'       -13.4390    6.9360    2.2040 ha        1 AGN      0.099000
     57 H6'       -12.8490    6.6990   -0.2130 ha        1 AGN      0.111000
     58 H8         -7.5880    3.6070   -5.3400 h5        1 AGN      0.182100
     59 HN1        -7.6800    7.0120  -10.9660 hn        1 AGN      0.319500
     60 HN21       -8.9830    9.5950   -8.9510 hn        1 AGN      0.376800
     61 HN22       -7.6340    9.5170   -9.8800 hn        1 AGN      0.376800
     62 H3B2       -3.6570    1.6790    0.0820 hn        1 AGN      0.415800
@<TRIPOS>BOND
     1    1    2 1
     2    1    3 1
     3    1    4 2
     4    5    6 1
     5    5   42 1
     6    5   62 1
     7    6    7 1
     8    6    8 1
     9    6    9 1
    10    9   10 1
    11   10   11 1
    12   10   12 1
    13   10   13 1
    14   13   14 1
    15   14   15 1
    16   14   43 1
    17   14   44 1
    18   15   16 1
    19   15   17 1
    20   15   45 1
    21   16   20 1
    22   17   18 1
    23   17   19 1
    24   17   46 1
    25   18   21 1
    26   19   20 1
    27   19   47 1
    28   19   48 1
    29   20   31 1
    30   20   49 1
    31   21   22 2
    32   21   23 1
    33   23   24 ar
    34   23   30 ar
    35   24   25 1
    36   24   27 ar
    37   25   26 1
    38   25   50 1
    39   26   51 1
    40   26   52 1
    41   26   53 1
    42   27   28 ar
    43   27   54 1
    44   28   29 ar
    45   28   55 1
    46   29   30 ar
    47   29   56 1
    48   30   57 1
    49   31   32 1
    50   31   41 1
    51   32   33 2
    52   32   58 1
    53   33   34 1
    54   34   35 1
    55   34   41 2
    56   35   36 2
    57   35   37 1
    58   37   38 1
    59   37   59 1
    60   38   39 1
    61   38   40 2
    62   39   60 1
    63   39   61 1
    64   40   41 1
@<TRIPOS>SUBSTRUCTURE
     1 AGN         1 TEMP              0 ****  ****    0 ROOT
