@<TRIPOS>MOLECULE
AGP
   31    30     1     0     0
SMALL
bcc


@<TRIPOS>ATOM
      1 C1          0.2660   -0.2800   -0.7210 c3        1 AGP      0.096400
      2 O1         -0.2410   -1.5920   -0.5320 oh        1 AGP     -0.605800
      3 C2          1.6360   -0.1910   -0.0120 c3        1 AGP      0.182500
      4 N2          1.6230   -0.5290    1.3950 n3        1 AGP     -0.903800
      5 C3          2.1990    1.2180   -0.3160 c3        1 AGP      0.107100
      6 O3          1.2510    2.1610    0.1710 oh        1 AGP     -0.631800
      7 C4          3.5680    1.4600    0.3450 c3        1 AGP      0.113100
      8 O4          3.4050    1.8440    1.7010 oh        1 AGP     -0.596800
      9 C5          4.3790    2.5300   -0.4050 c3        1 AGP      0.080100
     10 O5          3.5020    3.6210   -0.6590 oh        1 AGP     -0.658800
     11 C6          4.9950    1.9780   -1.7020 c3        1 AGP      0.159400
     12 O6          5.3670    3.0430   -2.5120 os        1 AGP     -0.575200
     13 P           6.9850    3.1750   -2.8830 p5        1 AGP      1.427800
     14 O1P         7.1070    4.2590   -3.8680 o         1 AGP     -0.827500
     15 O2P         7.4890    3.6390   -1.3990 oh        1 AGP     -0.786400
     16 O3P         7.5070    1.7940   -2.9590 o         1 AGP     -0.827500
     17 H11         0.4020   -0.0750   -1.8160 h1        1 AGP      0.032200
     18 H12        -0.4460    0.4740   -0.2900 h1        1 AGP      0.032200
     19 HO1        -1.0820   -1.6260   -1.0000 ho        1 AGP      0.392000
     20 H2          2.3230   -0.9410   -0.5090 h1        1 AGP      0.068700
     21 HN21        0.7830   -1.0220    1.6270 hn        1 AGP      0.359300
     22 HN22        1.6950    0.2970    1.9590 hn        1 AGP      0.359300
     23 H3          2.3010    1.3300   -1.4310 h1        1 AGP      0.056700
     24 HO3         1.5520    3.0320   -0.1260 ho        1 AGP      0.431000
     25 H4          4.1580    0.5030    0.3880 h1        1 AGP      0.093700
     26 HO4         7.9170    2.9300   -0.9320 ho        1 AGP      0.426000
     27 H5          5.2030    2.9030    0.2700 h1        1 AGP      0.062700
     28 HO5         3.8640    4.1050   -1.4170 ho        1 AGP      0.450000
     29 H61         5.8810    1.3270   -1.4600 h1        1 AGP      0.038200
     30 H62         4.2240    1.3660   -2.2490 h1        1 AGP      0.038200
     31 H23         2.9090    2.6730    1.6960 ho        1 AGP      0.407000
@<TRIPOS>BOND
     1    1    2 1   
     2    1    3 1   
     3    1   17 1   
     4    1   18 1   
     5    2   19 1   
     6    3    4 1   
     7    3    5 1   
     8    3   20 1   
     9    4   21 1   
    10    4   22 1   
    11    5    6 1   
    12    5    7 1   
    13    5   23 1   
    14    6   24 1   
    15    7    8 1   
    16    7    9 1   
    17    7   25 1   
    18    8   31 1   
    19    9   10 1   
    20    9   11 1   
    21    9   27 1   
    22   10   28 1   
    23   11   12 1   
    24   11   29 1   
    25   11   30 1   
    26   12   13 1   
    27   13   14 1   
    28   13   15 1   
    29   13   16 1   
    30   15   26 1   
@<TRIPOS>SUBSTRUCTURE
     1 AGP         1 TEMP              0 ****  ****    0 ROOT
