@<TRIPOS>MOLECULE
molecule
   31    30     1     0     0
SMALL
bcc


@<TRIPOS>ATOM
      1 C1           0.0000     0.0000     0.0000 c3         1 AGP       0.110400
      2 O1          -0.4770    -1.1670     0.6740 oh         1 AGP      -0.634800
      3 C2           1.5290     0.0000     0.0000 c3         1 AGP       0.088500
      4 N2           2.0190     0.0000     1.3840 nz         1 AGP      -0.794600
      5 C3           2.0400     1.2480    -0.7210 c3         1 AGP       0.121100
      6 O3           1.5640     2.4150    -0.0480 oh         1 AGP      -0.600800
      7 C4           3.5700     1.2490    -0.7220 c3         1 AGP       0.131100
      8 O4           4.0470     1.2480     0.6250 oh         1 AGP      -0.645800
      9 C5           4.0800     2.4970    -1.4430 c3         1 AGP       0.121100
     10 O5           3.6030     2.4970    -2.7910 oh         1 AGP      -0.633800
     11 C6           5.6080     2.4970    -1.4440 c3         1 AGP       0.144400
     12 O6           6.0860     3.6630    -2.1170 os         1 AGP      -0.526200
     13 P            7.6930     3.5990    -2.0810 p5         1 AGP       1.136900
     14 O1P          8.3010     4.8890    -2.8260 o          1 AGP      -0.872167
     15 O2P          8.1950     3.5770    -0.5500 o          1 AGP      -0.872167
     16 O3P          8.1530     2.3710    -2.7670 o          1 AGP      -0.872167
     17 H11         -0.3610     0.8850     0.5100 h1         1 AGP       0.058700
     18 H12         -0.3610    -0.0000    -1.0210 h1         1 AGP       0.058700
     19 HO1         -1.3930    -1.2860     0.4850 ho         1 AGP       0.433000
     20 H2           1.8900    -0.8850    -0.5110 hx         1 AGP       0.110700
     21 HN21         2.0790     0.9420     1.7160 hn         1 AGP       0.444800
     22 HN22         1.3870    -0.5180     1.9620 hn         1 AGP       0.444800
     23 H3           1.6790     1.2480    -1.7420 h1         1 AGP       0.097700
     24 HO3          0.9650     2.8790    -0.6090 ho         1 AGP       0.422000
     25 H4           3.9300     0.3650    -1.2330 h1         1 AGP       0.061700
     26 HO4          4.8310     0.7280     0.6800 ho         1 AGP       0.438000
     27 H5           3.7190     3.3820    -0.9330 h1         1 AGP       0.054700
     28 HO5          3.4790     3.3860    -3.0800 ho         1 AGP       0.429000
     29 H61          5.9700     2.4970    -0.4230 h1         1 AGP       0.049700
     30 H62          5.9690     1.6130    -1.9540 h1         1 AGP       0.049700
     31 H23          2.9170    -0.4410     1.4200 hn         1 AGP       0.444800
@<TRIPOS>BOND
     1     1     2 1
     2     1     3 1
     3     1    17 1
     4     1    18 1
     5     2    19 1
     6     3     4 1
     7     3     5 1
     8     3    20 1
     9     4    21 1
    10     4    22 1
    11     5     6 1
    12     5     7 1
    13     5    23 1
    14     6    24 1
    15     7     8 1
    16     7     9 1
    17     7    25 1
    18     8    26 1
    19     9    10 1
    20     9    11 1
    21     9    27 1
    22    10    28 1
    23    11    12 1
    24    11    29 1
    25    11    30 1
    26    12    13 1
    27    13    14 1
    28    13    15 1
    29    13    16 1
    30    31     4 1
@<TRIPOS>SUBSTRUCTURE
     1 AGP         1 TEMP              0 ****  ****    0 ROOT
