@<TRIPOS>MOLECULE
molecule
   45    47     1     0     0
SMALL
bcc


@<TRIPOS>ATOM
      1 PG           0.0000     0.0000     0.0000 p5         1 AGS       1.384200
      2 S1G          1.8630     0.0000     0.0000 s          1 AGS      -0.731000
      3 O2G         -0.5360     0.0000     1.5190 oh         1 AGS      -0.710900
      4 O3G         -0.5370     1.3140    -0.7580 oh         1 AGS      -0.710900
      5 PB          -0.3640    -1.8930    -2.2510 p5         1 AGS       1.418800
      6 O1B         -0.4370    -0.7800    -3.2230 o          1 AGS      -0.780500
      7 O2B          1.0630    -2.6270    -2.3800 o          1 AGS      -0.780500
      8 O3B         -0.5370    -1.3150    -0.7570 os         1 AGS      -0.647800
      9 PA          -2.1120    -3.6300    -3.8980 p5         1 AGS       1.425800
     10 O1A         -2.1530    -2.6240    -4.9820 o          1 AGS      -0.828000
     11 O2A         -1.1540    -4.8490    -4.3330 o          1 AGS      -0.828000
     12 O3A         -1.5400    -2.9500    -2.5550 os         1 AGS      -0.716800
     13 O5'         -3.5980    -4.1860    -3.6260 os         1 AGS      -0.597200
     14 C5'         -4.4170    -4.7520    -4.6520 c3         1 AGS       0.234400
     15 C4'         -5.7600    -5.1770    -4.0550 c3         1 AGS       0.116100
     16 O4'         -6.4940    -4.0180    -3.6260 os         1 AGS      -0.382600
     17 C3'         -6.6090    -5.8860    -5.1280 c3         1 AGS       0.085100
     18 O3'         -6.9140    -7.2230    -4.7230 oh         1 AGS      -0.583800
     19 C2'         -7.9010    -5.0380    -5.2120 c3         1 AGS       0.085100
     20 O2'         -9.0540    -5.8730    -5.3320 oh         1 AGS      -0.571800
     21 C1'         -7.8930    -4.2990    -3.8490 c3         1 AGS       0.251800
     22 N9          -8.6610    -3.0540    -3.9320 na         1 AGS      -0.240000
     23 C8          -8.1740    -1.8260    -4.2670 cc         1 AGS       0.460700
     24 N7          -9.1320    -0.9450    -4.2420 nd         1 AGS      -0.613100
     25 C5         -10.2910    -1.5510    -3.8890 ca         1 AGS      -0.205200
     26 C6         -11.6160    -1.1180    -3.7030 ca         1 AGS       0.775200
     27 N6         -11.9590     0.2100    -3.8900 nv         1 AGS      -0.995500
     28 N1         -12.5300    -2.0140    -3.3460 nb         1 AGS      -0.852000
     29 C2         -12.2110    -3.2830    -3.1660 ca         1 AGS       0.715900
     30 N3         -10.9850    -3.7320    -3.3290 nb         1 AGS      -0.771000
     31 C4         -10.0050    -2.9120    -3.6920 ca         1 AGS       0.469800
     32 HOG2         0.1680     0.2380     2.1000 ho         1 AGS       0.456000
     33 H21         -0.1730     2.0830    -0.3500 ho         1 AGS       0.456000
     34 H5'1        -3.9200    -5.6170    -5.0750 h1         1 AGS       0.036200
     35 H5'2        -4.5840    -4.0150    -5.4280 h1         1 AGS       0.036200
     36 H4'         -5.6020    -5.8420    -3.2140 h1         1 AGS       0.084700
     37 H3'         -6.0930    -5.8810    -6.0800 h1         1 AGS       0.054700
     38 HO3'        -6.5610    -7.8300    -5.3520 ho         1 AGS       0.398000
     39 H2'         -7.8420    -4.3310    -6.0300 h1         1 AGS       0.055700
     40 HO2'        -9.3250    -5.9070    -6.2340 ho         1 AGS       0.393000
     41 H1'         -8.2790    -4.9410    -3.0670 h2         1 AGS       0.104700
     42 H8          -7.1410    -1.6140    -4.5170 h5         1 AGS       0.113800
     43 HN61       -11.2610     0.8740    -4.1590 hn         1 AGS       0.443300
     44 HN62       -12.9050     0.5060    -3.7550 hn         1 AGS       0.443300
     45 H2         -12.9880    -3.9800    -2.8750 h5         1 AGS       0.049100
@<TRIPOS>BOND
     1     1     2 2
     2     1     3 1
     3     1     4 1
     4     1     8 1
     5     5     6 1
     6     5     7 1
     7     5     8 1
     8     5    12 1
     9     9    10 1
    10     9    11 1
    11     9    12 1
    12     9    13 1
    13    13    14 1
    14    14    15 1
    15    15    16 1
    16    15    17 1
    17    16    21 1
    18    17    18 1
    19    17    19 1
    20    19    20 1
    21    19    21 1
    22    21    22 1
    23    22    23 1
    24    22    31 1
    25    23    24 2
    26    24    25 1
    27    25    26 ar
    28    25    31 ar
    29    26    27 1
    30    26    28 ar
    31    28    29 ar
    32    29    30 ar
    33    30    31 ar
    34     3    32 1
    35     4    33 1
    36    14    34 1
    37    14    35 1
    38    15    36 1
    39    17    37 1
    40    18    38 1
    41    19    39 1
    42    20    40 1
    43    21    41 1
    44    23    42 1
    45    27    43 1
    46    27    44 1
    47    29    45 1
@<TRIPOS>SUBSTRUCTURE
     1 AGS         1 TEMP              0 ****  ****    0 ROOT
