@<TRIPOS>MOLECULE
AGU
   13    12     1     0     0
SMALL
bcc


@<TRIPOS>ATOM
      1 C            0.0000     0.0000     0.0000 c2         1 AGU       0.248100
      2 N1           1.3040     0.0000     0.0000 n2         1 AGU      -0.488100
      3 N2          -0.6860     0.0000     1.1910 nz         1 AGU       0.154400
      4 N3          -0.6860    -0.0020    -1.1890 nu         1 AGU      -0.506000
      5 N4          -0.0040    -0.0030    -2.3720 nz         1 AGU       0.315600
      6 HN1          1.8050     0.0010     0.8660 hn         1 AGU       0.399400
      7 HN21        -1.6470     0.2230     1.0230 hn         1 AGU       0.249467
      8 HN22        -0.2880     0.6820     1.8060 hn         1 AGU       0.249467
      9 HN3         -1.6870    -0.0100    -1.1890 hn         1 AGU       0.393800
     10 HN41         0.5730    -0.8190    -2.4240 hn         1 AGU       0.244467
     11 HN42         0.5690     0.8150    -2.4280 hn         1 AGU       0.244467
     12 H23         -0.6920    -0.9250     1.5730 hn         1 AGU       0.249467
     13 H43         -0.6520     0.0760    -3.1310 hn         1 AGU       0.244467
@<TRIPOS>BOND
     1     1     2 2   
     2     1     3 1   
     3     1     4 1   
     4     2     6 1   
     5     3     7 1   
     6     3     8 1   
     7     3    12 1   
     8     4     5 1   
     9     4     9 1   
    10     5    10 1   
    11     5    11 1   
    12     5    13 1   
@<TRIPOS>SUBSTRUCTURE
     1 AGU         1 TEMP              0 ****  ****    0 ROOT
