@<TRIPOS>MOLECULE
molecule
   13    12     1     0     0
SMALL
bcc


@<TRIPOS>ATOM
      1 C            0.0000     0.0000     0.0000 c2         1 AGU       0.675100
      2 N1           1.3040     0.0000     0.0000 n2         1 AGU      -0.691100
      3 N2          -0.6860     0.0000     1.1910 nz         1 AGU      -0.738600
      4 N3          -0.6860    -0.0020    -1.1890 nu         1 AGU      -0.762000
      5 N4          -0.0040    -0.0030    -2.3720 nz         1 AGU      -0.493400
      6 HN1          1.8060    -0.0010    -0.8660 hn         1 AGU       0.470400
      7 HN21        -1.2600    -0.8180     1.2460 hn         1 AGU       0.508800
      8 HN22        -1.2640     0.8160     1.2440 hn         1 AGU       0.508800
      9 HN3         -1.6870    -0.0020    -1.1890 hn         1 AGU       0.529800
     10 HN41         0.5710     0.8140    -2.4270 hn         1 AGU       0.494467
     11 HN42         0.5710    -0.8200    -2.4250 hn         1 AGU       0.494467
     12 H23         -0.0390     0.0840     1.9490 hn         1 AGU       0.508800
     13 H43         -0.6550    -0.0400    -3.1320 hn         1 AGU       0.494467
@<TRIPOS>BOND
     1     1     2 2
     2     1     3 1
     3     1     4 1
     4     2     6 1
     5     3     7 1
     6     3     8 1
     7     4     5 1
     8     4     9 1
     9     5    10 1
    10     5    11 1
    11    12     3 1
    12    13     5 1
@<TRIPOS>SUBSTRUCTURE
     1 AGU         1 TEMP              0 ****  ****    0 ROOT
