@<TRIPOS>MOLECULE
AGV
   37    39     1     0     0
SMALL
bcc


@<TRIPOS>ATOM
      1 O5'          0.0000     0.0000     0.0000 oh         1 AGV      -0.583800
      2 C5'          1.4290     0.0000     0.0000 c3         1 AGV       0.187400
      3 C4'          1.9380     0.0000     1.4430 c3         1 AGV       0.113500
      4 C3'          1.3890     1.2300     2.1950 c3         1 AGV       0.172100
      5 O3'          0.2670     0.8690     3.0030 oh         1 AGV      -0.547800
      6 N4'          3.4090     0.1020     1.4550 n3         1 AGV      -0.508600
      7 C1'          3.7890     1.3480     2.1570 c3         1 AGV       0.122800
      8 C2'          2.5860     1.6630     3.0810 c3         1 AGV       0.153100
      9 O2'          2.6430     0.8880     4.2790 oh         1 AGV      -0.540800
     10 C7           3.9500     0.0810     0.0900 c3         1 AGV       0.228000
     11 C9           5.4540     0.0060     0.1460 cc         1 AGV      -0.259000
     12 C8           6.3130     1.0320    -0.0020 cd         1 AGV      -0.266100
     13 N7           7.5960     0.5840     0.1110 na         1 AGV       0.392600
     14 C5           7.5970    -0.7730     0.3380 ca         1 AGV      -0.476800
     15 C4           6.2550    -1.1920     0.3770 ca         1 AGV       0.418100
     16 C6           8.5930    -1.7360     0.5290 ca         1 AGV       0.533200
     17 N6           9.9320    -1.3820     0.5100 nv         1 AGV      -0.658500
     18 N1           8.2280    -2.9980     0.7310 nb         1 AGV      -0.627000
     19 C2           6.9540    -3.3500     0.7530 ca         1 AGV       0.593900
     20 N3           5.9810    -2.4810     0.5930 nb         1 AGV      -0.558000
     21 H1          -0.3140    -0.2590    -0.8500 ho         1 AGV       0.388000
     22 H2           1.7900    -0.8850    -0.5110 h1         1 AGV      -0.002800
     23 H3           1.7900     0.8850    -0.5110 h1         1 AGV      -0.002800
     24 H4           1.6290    -0.9070     1.9490 h1         1 AGV       0.074700
     25 H5           1.1280     2.0170     1.4970 h1         1 AGV       0.009700
     26 H6          -0.3350     1.5930     3.0470 ho         1 AGV       0.380000
     27 H8           4.6840     1.1890     2.7460 h1         1 AGV       0.018700
     28 H9           3.9360     2.1500     1.4440 h1         1 AGV       0.018700
     29 H10          2.5380     2.7230     3.3000 h1         1 AGV      -0.002300
     30 H11          2.8710     1.4460     5.0040 ho         1 AGV       0.379000
     31 H12          3.6540     0.9840    -0.4300 h1         1 AGV       0.018700
     32 H13          3.5650    -0.7820    -0.4380 h1         1 AGV       0.018700
     33 H14          6.0270     2.0610    -0.1850 h4         1 AGV       0.142000
     34 H15          8.4140     1.1560     0.0380 hn         1 AGV       0.116700
     35 H16         10.3960    -1.1290     1.3600 hn         1 AGV       0.276300
     36 H17         10.4460    -1.4160    -0.3490 hn         1 AGV       0.276300
     37 H18          6.7030    -4.3900     0.9210 h5         1 AGV      -0.000900
@<TRIPOS>BOND
     1     1     2 1   
     2     1    21 1   
     3     2     3 1   
     4     2    22 1   
     5     2    23 1   
     6     3     4 1   
     7     3     6 1   
     8     3    24 1   
     9     4     5 1   
    10     4     8 1   
    11     4    25 1   
    12     5    26 1   
    13     6     7 1   
    14     6    10 1   
    15     7     8 1   
    16     7    27 1   
    17     7    28 1   
    18     8     9 1   
    19     8    29 1   
    20     9    30 1   
    21    10    11 1   
    22    10    31 1   
    23    10    32 1   
    24    11    12 2   
    25    11    15 1   
    26    12    13 1   
    27    12    33 1   
    28    13    14 1   
    29    13    34 1   
    30    14    15 ar  
    31    14    16 ar  
    32    15    20 ar  
    33    16    17 1   
    34    16    18 ar  
    35    17    35 1   
    36    17    36 1   
    37    18    19 ar  
    38    19    20 ar  
    39    19    37 1   
@<TRIPOS>SUBSTRUCTURE
     1 AGV         1 TEMP              0 ****  ****    0 ROOT
