@<TRIPOS>MOLECULE
molecule
   37    39     1     0     0
SMALL
bcc


@<TRIPOS>ATOM
      1 O5'          0.0000     0.0000     0.0000 oh         1 AGV      -0.603800
      2 C5'          1.4290     0.0000     0.0000 c3         1 AGV       0.113400
      3 C4'          1.9380     0.0000     1.4430 c3         1 AGV       0.166500
      4 C3'          1.3890     1.2300     2.1950 c3         1 AGV       0.137100
      5 O3'          0.2670     0.8690     3.0030 oh         1 AGV      -0.566800
      6 N4'          3.4090     0.1020     1.4550 n3         1 AGV      -0.678600
      7 C1'          3.7890     1.3480     2.1570 c3         1 AGV       0.130800
      8 C2'          2.5860     1.6630     3.0810 c3         1 AGV       0.108100
      9 O2'          2.6430     0.8880     4.2790 oh         1 AGV      -0.560800
     10 C7           3.9500     0.0810     0.0900 c3         1 AGV       0.228000
     11 C9           5.4540     0.0060     0.1460 cc         1 AGV      -0.262000
     12 C8           6.3130     1.0320    -0.0020 cd         1 AGV      -0.086100
     13 N7           7.5960     0.5840     0.1110 na         1 AGV      -0.162400
     14 C5           7.5970    -0.7730     0.3380 ca         1 AGV      -0.296800
     15 C4           6.2550    -1.1920     0.3770 ca         1 AGV       0.471100
     16 C6           8.5930    -1.7360     0.5290 ca         1 AGV       0.706200
     17 N6           9.9320    -1.3820     0.5100 nv         1 AGV      -1.085500
     18 N1           8.2280    -2.9980     0.7310 nb         1 AGV      -0.746000
     19 C2           6.9540    -3.3500     0.7530 ca         1 AGV       0.660900
     20 N3           5.9810    -2.4810     0.5930 nb         1 AGV      -0.692000
     21 H1          -0.3140    -0.2590    -0.8500 ho         1 AGV       0.402000
     22 H2           1.7900    -0.8850    -0.5110 h1         1 AGV       0.026700
     23 H3           1.7900     0.8850    -0.5110 h1         1 AGV       0.026700
     24 H4           1.6290    -0.9070     1.9490 h1         1 AGV       0.113700
     25 H5           1.1280     2.0170     1.4970 h1         1 AGV       0.042700
     26 H6          -0.3350     1.5930     3.0470 ho         1 AGV       0.396000
     27 H8           4.6840     1.1890     2.7460 h1         1 AGV       0.046200
     28 H9           3.9360     2.1500     1.4440 h1         1 AGV       0.046200
     29 H10          2.5380     2.7230     3.3000 h1         1 AGV       0.032700
     30 H11          2.8710     1.4460     5.0040 ho         1 AGV       0.394000
     31 H12          3.6540     0.9840    -0.4300 h1         1 AGV       0.043700
     32 H13          3.5650    -0.7820    -0.4380 h1         1 AGV       0.043700
     33 H14          6.0270     2.0610    -0.1850 h4         1 AGV       0.168000
     34 H15          8.4140     1.1560     0.0380 hn         1 AGV       0.302700
     35 H16         10.3960    -1.1290     1.3600 hn         1 AGV       0.437300
     36 H17         10.4460    -1.4160    -0.3490 hn         1 AGV       0.437300
     37 H18          6.7030    -4.3900     0.9210 h5         1 AGV       0.060100
@<TRIPOS>BOND
     1     1     2 1
     2     2     3 1
     3     5     4 1
     4     4     3 1
     5     4     8 1
     6     3     6 1
     7     8     9 1
     8     8     7 1
     9     6     7 1
    10     6    10 1
    11    12    11 2
    12    12    13 1
    13    10    11 1
    14    11    15 1
    15    13    14 1
    16    15    14 ar
    17    15    20 ar
    18    14    16 ar
    19    20    19 ar
    20    16    17 1
    21    16    18 ar
    22    19    18 ar
    23     1    21 1
    24     2    22 1
    25     2    23 1
    26     3    24 1
    27     4    25 1
    28     5    26 1
    29     7    27 1
    30     7    28 1
    31     8    29 1
    32     9    30 1
    33    10    31 1
    34    10    32 1
    35    12    33 1
    36    13    34 1
    37    17    35 1
    38    17    36 1
    39    19    37 1
@<TRIPOS>SUBSTRUCTURE
     1 AGV         1 TEMP              0 ****  ****    0 ROOT
