@<TRIPOS>MOLECULE
AGX
   36    38     1     0     0
SMALL
bcc


@<TRIPOS>ATOM
      1 C            0.0000     0.0000     0.0000 ca         1 AGX      -0.088000
      2 N           -2.0250    -0.0020     1.5490 na         1 AGX       0.284700
      3 O           -4.5040    -0.1210     2.8110 os         1 AGX      -0.444900
      4 Cl          -8.8660     4.5090     4.5810 cl         1 AGX       0.005600
      5 C1           1.3780     0.0000     0.0000 ca         1 AGX      -0.088000
      6 N1          -0.8950    -0.0030     3.4160 nc         1 AGX      -0.509100
      7 O1          -5.7110     1.0430     4.2630 o          1 AGX      -0.630000
      8 Cl1        -11.6600     3.3050     3.8930 cl         1 AGX      -0.001400
      9 C2           2.0810     0.0000     1.1960 ca         1 AGX      -0.119000
     10 N2          -6.7470     0.3840     2.4140 ns         1 AGX      -0.007100
     11 C3           1.4220    -0.0020     2.3920 ca         1 AGX      -0.037000
     12 C4          -0.6880    -0.0010     1.2050 ca         1 AGX      -0.279200
     13 C5           0.0250    -0.0030     2.4170 ca         1 AGX       0.064400
     14 C6          -2.0930    -0.0030     2.9080 cd         1 AGX       0.187800
     15 C7          -3.3690    -0.0020     3.7090 c3         1 AGX       0.212800
     16 C9          -7.9120     1.0760     2.7660 ca         1 AGX      -0.077400
     17 C10         -9.1570     0.5430     2.4600 ca         1 AGX      -0.121000
     18 C11        -10.3050     1.2280     2.8080 ca         1 AGX      -0.070000
     19 C12        -10.2150     2.4460     3.4600 ca         1 AGX      -0.052600
     20 C13         -8.9750     2.9810     3.7640 ca         1 AGX      -0.021600
     21 C14         -7.8230     2.2960     3.4240 ca         1 AGX      -0.088000
     22 C15         -3.3620    -1.1850     4.6800 c3         1 AGX      -0.019100
     23 H           -0.5440    -0.0000    -0.9370 ha         1 AGX       0.099000
     24 H1           1.9160     0.0020    -0.9400 ha         1 AGX       0.103000
     25 H2           3.1650     0.0000     1.1820 ha         1 AGX       0.105000
     26 HN2         -6.7180    -0.1490     1.5670 hn         1 AGX       0.169500
     27 H3           1.9810    -0.0020     3.3200 ha         1 AGX       0.110000
     28 H7          -3.4450     0.9230     4.2670 h1         1 AGX       0.059700
     29 H10         -9.2280    -0.4100     1.9500 ha         1 AGX       0.111000
     30 H11        -11.2760     0.8120     2.5700 ha         1 AGX       0.118000
     31 H14         -6.8540     2.7420     3.6090 ha         1 AGX       0.150000
     32 H15         -4.2720    -1.1750     5.2680 hc         1 AGX       0.022367
     33 H15A        -2.5050    -1.1060     5.3380 hc         1 AGX       0.022367
     34 H15B        -3.3040    -2.1110     4.1210 hc         1 AGX       0.022367
     35 HN          -2.8000    -0.0020     0.9160 hn         1 AGX       0.130700
     36 C8          -5.6560     0.4570     3.2020 c          1 AGX       0.672100
@<TRIPOS>BOND
     1     1     5 ar  
     2     1    12 ar  
     3     1    23 1   
     4     2    12 1   
     5     2    14 1   
     6     2    35 1   
     7     3    15 1   
     8     3    36 1   
     9     4    20 1   
    10     5     9 ar  
    11     5    24 1   
    12     6    13 1   
    13     6    14 2   
    14     7    36 2   
    15     8    19 1   
    16     9    11 ar  
    17     9    25 1   
    18    10    16 1   
    19    10    26 1   
    20    10    36 1   
    21    11    13 ar  
    22    11    27 1   
    23    12    13 ar  
    24    14    15 1   
    25    15    22 1   
    26    15    28 1   
    27    16    17 ar  
    28    16    21 ar  
    29    17    18 ar  
    30    17    29 1   
    31    18    19 ar  
    32    18    30 1   
    33    19    20 ar  
    34    20    21 ar  
    35    21    31 1   
    36    22    32 1   
    37    22    33 1   
    38    22    34 1   
@<TRIPOS>SUBSTRUCTURE
     1 AGX         1 TEMP              0 ****  ****    0 ROOT
