@<TRIPOS>MOLECULE
AGY
   52    54     1     0     0
SMALL
bcc


@<TRIPOS>ATOM
      1 C1           0.0000     0.0000     0.0000 ca         1 AGY      -0.042000
      2 N1           2.1160    -0.0000    -1.2050 ns         1 AGY      -0.055100
      3 O1           3.7840     1.1600    -0.3090 o          1 AGY      -0.665100
      4 C2           1.4110     0.0000     0.0000 ca         1 AGY      -0.084400
      5 N2           3.9360     0.7150    -2.4800 ns         1 AGY      -0.172500
      6 O2           5.0780     0.7720    -4.8830 o          1 AGY      -0.627100
      7 C3          -0.6930    -0.0050     1.2350 ca         1 AGY      -0.023000
      8 N3           3.3740     0.1190    -3.6170 ns         1 AGY      -0.173500
      9 O3           5.3230    -0.3720    -9.7170 o          1 AGY      -0.442000
     10 C4          -0.7290     0.0000    -1.1990 ca         1 AGY      -0.110000
     11 N4           4.2180    -0.8790    -9.6470 no         1 AGY       1.036200
     12 O4           3.6860    -1.3240   -10.6490 o          1 AGY      -0.442000
     13 C5           2.0880     0.0000     1.2010 ca         1 AGY      -0.100000
     14 C6           0.0340    -0.0050     2.4380 ca         1 AGY      -0.101000
     15 C7          -2.0990    -0.0110     1.2360 ca         1 AGY      -0.077000
     16 C8          -2.0900     0.0010    -1.1620 ca         1 AGY      -0.089000
     17 C9           1.3960     0.0010     2.4090 ca         1 AGY      -0.078000
     18 C10          3.2970     0.6430    -1.2950 c          1 AGY       0.570100
     19 C11         -2.7730    -0.0110     0.0520 ca         1 AGY      -0.105000
     20 C12          4.0130     0.1910    -4.8010 c          1 AGY       0.604700
     21 C13          3.4190    -0.4380    -6.0010 ca         1 AGY      -0.187600
     22 C14          4.0790    -0.3650    -7.2280 ca         1 AGY       0.063000
     23 C15          2.1990    -1.1110    -5.9090 ca         1 AGY      -0.024000
     24 C16          3.5200    -0.9540    -8.3440 ca         1 AGY      -0.452200
     25 C17          1.6520    -1.6950    -7.0320 ca         1 AGY      -0.142000
     26 C18          2.3080    -1.6140    -8.2470 ca         1 AGY       0.049700
     27 C19          1.7030    -2.2550    -9.4700 c3         1 AGY      -0.025700
     28 C20          2.7190    -3.2090   -10.1010 c3         1 AGY       0.005900
     29 C21          0.4500    -3.0360    -9.0690 c3         1 AGY       0.005900
     30 C22          1.3260    -1.1700   -10.4810 c3         1 AGY       0.005900
     31 HN1          1.7680    -0.5190    -1.9870 hn         1 AGY       0.157500
     32 HN2          4.8110     1.1950    -2.5480 hn         1 AGY       0.244500
     33 HN3          2.5040    -0.3700    -3.5470 hn         1 AGY       0.195500
     34 H4          -0.2110     0.0090    -2.1500 ha         1 AGY       0.090000
     35 H5           3.1720     0.0050     1.2050 ha         1 AGY       0.152000
     36 H6          -0.4870    -0.0040     3.3870 ha         1 AGY       0.107000
     37 H7          -2.6440    -0.0200     2.1720 ha         1 AGY       0.108000
     38 H8          -2.6490     0.0010    -2.0890 ha         1 AGY       0.099000
     39 H9           1.9490     0.0010     3.3400 ha         1 AGY       0.105000
     40 H11         -3.8560    -0.0100     0.0550 ha         1 AGY       0.103000
     41 H14          4.9860     0.2200    -7.3220 ha         1 AGY       0.157000
     42 H15          1.6850    -1.1740    -4.9570 ha         1 AGY       0.097000
     43 H17          0.7040    -2.2150    -6.9630 ha         1 AGY       0.137000
     44 H120         2.8640    -2.9470   -11.1420 hc         1 AGY       0.013700
     45 H220         3.6620    -3.1320    -9.5740 hc         1 AGY       0.013700
     46 H320         2.3500    -4.2260   -10.0330 hc         1 AGY       0.013700
     47 H121        -0.2850    -2.3540    -8.6580 hc         1 AGY       0.013700
     48 H221         0.0360    -3.5280    -9.9410 hc         1 AGY       0.013700
     49 H321         0.7100    -3.7790    -8.3250 hc         1 AGY       0.013700
     50 H122         1.5800    -1.5020   -11.4800 hc         1 AGY       0.013700
     51 H222         1.8700    -0.2610   -10.2540 hc         1 AGY       0.013700
     52 H322         0.2620    -0.9770   -10.4240 hc         1 AGY       0.013700
@<TRIPOS>BOND
     1     1     4 ar  
     2     1     7 ar  
     3     1    10 ar  
     4     2     4 1   
     5     2    18 1   
     6     2    31 1   
     7     3    18 2   
     8     4    13 ar  
     9     5     8 1   
    10     5    18 1   
    11     5    32 1   
    12     6    20 2   
    13     7    14 ar  
    14     7    15 ar  
    15     8    20 1   
    16     8    33 1   
    17     9    11 1   
    18    10    16 ar  
    19    10    34 1   
    20    11    12 1   
    21    11    24 1   
    22    13    17 ar  
    23    13    35 1   
    24    14    17 ar  
    25    14    36 1   
    26    15    19 ar  
    27    15    37 1   
    28    16    19 ar  
    29    16    38 1   
    30    17    39 1   
    31    19    40 1   
    32    20    21 1   
    33    21    22 ar  
    34    21    23 ar  
    35    22    24 ar  
    36    22    41 1   
    37    23    25 ar  
    38    23    42 1   
    39    24    26 ar  
    40    25    26 ar  
    41    25    43 1   
    42    26    27 1   
    43    27    28 1   
    44    27    29 1   
    45    27    30 1   
    46    28    44 1   
    47    28    45 1   
    48    28    46 1   
    49    29    47 1   
    50    29    48 1   
    51    29    49 1   
    52    30    50 1   
    53    30    51 1   
    54    30    52 1   
@<TRIPOS>SUBSTRUCTURE
     1 AGY         1 TEMP              0 ****  ****    0 ROOT
