@<TRIPOS>MOLECULE
molecule
   52    54     1     0     0
SMALL
bcc


@<TRIPOS>ATOM
      1 C1           0.0000     0.0000     0.0000 ca         1 AGY      -0.048000
      2 N1           2.1160    -0.0000    -1.2050 ns         1 AGY      -0.489100
      3 O1           3.7840     1.1600    -0.3090 o          1 AGY      -0.618100
      4 C2           1.4110     0.0000     0.0000 ca         1 AGY       0.062600
      5 N2           3.9360     0.7150    -2.4800 ns         1 AGY      -0.442500
      6 O2           5.0780     0.7720    -4.8830 o          1 AGY      -0.587100
      7 C3          -0.6930    -0.0050     1.2350 ca         1 AGY      -0.022000
      8 N3           3.3740     0.1190    -3.6170 ns         1 AGY      -0.448500
      9 O3           5.3230    -0.3720    -9.7170 o          1 AGY      -0.197000
     10 C4          -0.7290     0.0000    -1.1990 ca         1 AGY      -0.127000
     11 N4           4.2180    -0.8790    -9.6470 no         1 AGY       0.285200
     12 O4           3.6860    -1.3240   -10.6490 o          1 AGY      -0.197000
     13 C5           2.0880     0.0000     1.2010 ca         1 AGY      -0.124000
     14 C6           0.0340    -0.0050     2.4380 ca         1 AGY      -0.132000
     15 C7          -2.0990    -0.0110     1.2360 ca         1 AGY      -0.108000
     16 C8          -2.0900     0.0010    -1.1620 ca         1 AGY      -0.121000
     17 C9           1.3960     0.0010     2.4090 ca         1 AGY      -0.107000
     18 C10          3.2970     0.6430    -1.2950 c          1 AGY       0.788100
     19 C11         -2.7730    -0.0110     0.0520 ca         1 AGY      -0.128000
     20 C12          4.0130     0.1910    -4.8010 c          1 AGY       0.677700
     21 C13          3.4190    -0.4380    -6.0010 ca         1 AGY      -0.159600
     22 C14          4.0790    -0.3650    -7.2280 ca         1 AGY      -0.003000
     23 C15          2.1990    -1.1110    -5.9090 ca         1 AGY      -0.068000
     24 C16          3.5200    -0.9540    -8.3440 ca         1 AGY      -0.164200
     25 C17          1.6520    -1.6950    -7.0320 ca         1 AGY      -0.146000
     26 C18          2.3080    -1.6140    -8.2470 ca         1 AGY       0.020700
     27 C19          1.7030    -2.2550    -9.4700 c3         1 AGY      -0.032700
     28 C20          2.7190    -3.2090   -10.1010 c3         1 AGY      -0.070767
     29 C21          0.4500    -3.0360    -9.0690 c3         1 AGY      -0.070767
     30 C22          1.3260    -1.1700   -10.4810 c3         1 AGY      -0.070767
     31 HN1          1.7680    -0.5190    -1.9870 hn         1 AGY       0.309500
     32 HN2          4.8110     1.1950    -2.5480 hn         1 AGY       0.394500
     33 HN3          2.5040    -0.3700    -3.5470 hn         1 AGY       0.335500
     34 H4          -0.2110     0.0090    -2.1500 ha         1 AGY       0.114000
     35 H5           3.1720     0.0050     1.2050 ha         1 AGY       0.171000
     36 H6          -0.4870    -0.0040     3.3870 ha         1 AGY       0.134000
     37 H7          -2.6440    -0.0200     2.1720 ha         1 AGY       0.136000
     38 H8          -2.6490     0.0010    -2.0890 ha         1 AGY       0.127000
     39 H9           1.9490     0.0010     3.3400 ha         1 AGY       0.136000
     40 H11         -3.8560    -0.0100     0.0550 ha         1 AGY       0.131000
     41 H14          4.9860     0.2200    -7.3220 ha         1 AGY       0.193000
     42 H15          1.6850    -1.1740    -4.9570 ha         1 AGY       0.128000
     43 H17          0.7040    -2.2150    -6.9630 ha         1 AGY       0.160000
     44 H120         2.8640    -2.9470   -11.1420 hc         1 AGY       0.041811
     45 H220         3.6620    -3.1320    -9.5740 hc         1 AGY       0.041811
     46 H320         2.3500    -4.2260   -10.0330 hc         1 AGY       0.041811
     47 H121        -0.2850    -2.3540    -8.6580 hc         1 AGY       0.041811
     48 H221         0.0360    -3.5280    -9.9410 hc         1 AGY       0.041811
     49 H321         0.7100    -3.7790    -8.3250 hc         1 AGY       0.041811
     50 H122         1.5800    -1.5020   -11.4800 hc         1 AGY       0.041811
     51 H222         1.8700    -0.2610   -10.2540 hc         1 AGY       0.041811
     52 H322         0.2620    -0.9770   -10.4240 hc         1 AGY       0.041811
@<TRIPOS>BOND
     1     3    18 2
     2    18     5 1
     3    18     2 1
     4    17    14 ar
     5    17    13 ar
     6    14     7 ar
     7    13     4 ar
     8     5     8 1
     9     7    15 ar
    10     7     1 ar
    11    15    19 ar
    12     4     1 ar
    13     4     2 1
    14     1    10 ar
    15    19    16 ar
    16    10    16 ar
    17     8    20 1
    18     6    20 2
    19    20    21 1
    20    21    22 ar
    21    21    23 ar
    22    22    24 ar
    23    12    11 1
    24    23    25 ar
    25    24    11 1
    26    24    26 ar
    27    11     9 1
    28    25    26 ar
    29    26    27 1
    30    27    29 1
    31    27    30 1
    32    27    28 1
    33     2    31 1
    34     5    32 1
    35     8    33 1
    36    10    34 1
    37    13    35 1
    38    14    36 1
    39    15    37 1
    40    16    38 1
    41    17    39 1
    42    19    40 1
    43    22    41 1
    44    23    42 1
    45    25    43 1
    46    28    44 1
    47    28    45 1
    48    28    46 1
    49    29    47 1
    50    29    48 1
    51    29    49 1
    52    30    50 1
    53    30    51 1
    54    30    52 1
@<TRIPOS>SUBSTRUCTURE
     1 AGY         1 TEMP              0 ****  ****    0 ROOT
