@<TRIPOS>MOLECULE
AH0
   35    36     1     0     0
SMALL
bcc


@<TRIPOS>ATOM
      1 C1           0.0000     0.0000     0.0000 c3         1 AH0       0.370900
      2 C2           1.5370     0.0000     0.0000 c3         1 AH0      -0.060300
      3 N2           2.0270    -1.1980    -0.6850 ns         1 AH0      -0.180900
      4 C7           2.1560    -1.2020    -2.0280 c          1 AH0       0.562100
      5 O7           1.8670    -0.2130    -2.6670 o          1 AH0      -0.661100
      6 C8           2.6610    -2.4340    -2.7320 c3         1 AH0      -0.069100
      7 C3           2.0320     0.0000     1.4500 c3         1 AH0       0.145100
      8 O3           1.7170     1.2520     2.0610 os         1 AH0      -0.350600
      9 C4           1.3440    -1.1320     2.2200 c3         1 AH0       0.152100
     10 O4           1.7960    -2.3940     1.7250 oh         1 AH0      -0.588800
     11 C5          -0.1750    -1.0110     2.0140 c3         1 AH0       0.118100
     12 O5          -0.4360    -1.2370     0.6070 os         1 AH0      -0.417600
     13 C6          -0.5580     0.4760     2.1940 c3         1 AH0       0.162400
     14 O6          -0.4500     1.0480     0.8790 os         1 AH0      -0.356600
     15 CA           2.7330     2.2460     1.9080 c3         1 AH0       0.051100
     16 CB           3.7420     2.1230     3.0530 c3         1 AH0      -0.019100
     17 C            2.1060     3.6160     1.9390 c          1 AH0       0.978600
     18 O            0.9250     3.7340     2.1660 o          1 AH0      -0.881300
     19 OXT          2.8580     4.7040     1.7120 o          1 AH0      -0.881300
     20 H1          -0.4010     0.1170    -1.0000 h2         1 AH0       0.056700
     21 H2           1.9000     0.8840    -0.5090 h1         1 AH0       0.088700
     22 HN2          2.2960    -2.0040    -0.1550 hn         1 AH0       0.198500
     23 H81          3.6340    -2.7020    -2.3390 hc         1 AH0       0.015033
     24 H82          2.7430    -2.2350    -3.7940 hc         1 AH0       0.015033
     25 H83          1.9690    -3.2510    -2.5710 hc         1 AH0       0.015033
     26 H3           3.1040    -0.1510     1.4650 h1         1 AH0       0.015700
     27 H4           1.5770    -1.0500     3.2750 h1         1 AH0       0.012700
     28 HO4          2.0440    -2.9460     2.4490 ho         1 AH0       0.383000
     29 H5          -0.7440    -1.6710     2.6580 h1         1 AH0       0.034700
     30 H61          0.1310     0.9630     2.8740 h1         1 AH0       0.041700
     31 H62         -1.5740     0.5620     2.5600 h1         1 AH0       0.041700
     32 HA           3.2400     2.1010     0.9620 h1         1 AH0       0.009700
     33 HB1          4.1670     3.0960     3.2650 hc         1 AH0      -0.000967
     34 HB2          3.2410     1.7460     3.9360 hc         1 AH0      -0.000967
     35 HB3          4.5310     1.4390     2.7660 hc         1 AH0      -0.000967
@<TRIPOS>BOND
     1     1     2 1   
     2     1    12 1   
     3     1    14 1   
     4     1    20 1   
     5     2     3 1   
     6     2     7 1   
     7     2    21 1   
     8     3     4 1   
     9     3    22 1   
    10     4     5 2   
    11     4     6 1   
    12     6    23 1   
    13     6    24 1   
    14     6    25 1   
    15     7     8 1   
    16     7     9 1   
    17     7    26 1   
    18     8    15 1   
    19     9    10 1   
    20     9    11 1   
    21     9    27 1   
    22    10    28 1   
    23    11    12 1   
    24    11    13 1   
    25    11    29 1   
    26    13    14 1   
    27    13    30 1   
    28    13    31 1   
    29    15    16 1   
    30    15    17 1   
    31    15    32 1   
    32    16    33 1   
    33    16    34 1   
    34    16    35 1   
    35    17    18 1   
    36    17    19 1   
@<TRIPOS>SUBSTRUCTURE
     1 AH0         1 TEMP              0 ****  ****    0 ROOT
