@<TRIPOS>MOLECULE
AH1
   74    78     1     0     0
SMALL
bcc


@<TRIPOS>ATOM
      1 N01          0.0000     0.0000     0.0000 n          1 AH1      -0.132800
      2 C02          1.3420     0.0000     0.0000 c          1 AH1       0.639500
      3 N03          2.1230     0.0000     1.0680 n          1 AH1      -0.132800
      4 C04          1.6430     0.1580     2.4360 c3         1 AH1      -0.025800
      5 C05          0.5900     1.2720     2.5200 c3         1 AH1       0.147100
      6 C06         -0.8040     0.7630     2.1910 c3         1 AH1       0.147100
      7 C07         -0.7590    -0.3810     1.1920 c3         1 AH1      -0.025800
      8 C08         -0.7200     0.3870    -1.2170 c3         1 AH1       0.101300
      9 C09         -0.9680     1.8730    -1.2020 ca         1 AH1      -0.120300
     10 C10         -0.0390     2.7340    -1.7550 ca         1 AH1      -0.081750
     11 C11         -0.2650     4.0970    -1.7440 ca         1 AH1      -0.110250
     12 C12         -1.4220     4.6000    -1.1770 ca         1 AH1      -0.099000
     13 C13         -2.3520     3.7390    -0.6260 ca         1 AH1      -0.110250
     14 C14         -2.1260     2.3750    -0.6420 ca         1 AH1      -0.081750
     15 O15          1.8930     0.0020    -1.0840 o          1 AH1      -0.756500
     16 C16          3.5640    -0.1690     0.8650 c3         1 AH1       0.101300
     17 C17          4.2080     1.1810     0.6860 ca         1 AH1      -0.120300
     18 C18          4.6790     1.8730     1.7870 ca         1 AH1      -0.081750
     19 C19          5.2700     3.1110     1.6230 ca         1 AH1      -0.110250
     20 C20          5.3910     3.6580     0.3600 ca         1 AH1      -0.099000
     21 C21          4.9200     2.9660    -0.7410 ca         1 AH1      -0.110250
     22 C22          4.3330     1.7250    -0.5780 ca         1 AH1      -0.081750
     23 C23          1.0140    -1.1560     2.9060 c3         1 AH1       0.129900
     24 O24          1.8140    -1.7220     3.9460 os         1 AH1      -0.274900
     25 C25          1.2090    -2.8790     4.3190 ca         1 AH1       0.130600
     26 C26          1.7630    -3.6600     5.3240 ca         1 AH1      -0.182500
     27 C27          1.1470    -4.8360     5.7020 ca         1 AH1      -0.055750
     28 C28         -0.0230    -5.2360     5.0810 ca         1 AH1      -0.140000
     29 C29         -0.5760    -4.4600     4.0810 ca         1 AH1      -0.055750
     30 C30          0.0330    -3.2800     3.7010 ca         1 AH1      -0.182500
     31 O31          0.5860     1.8100     3.8440 oh         1 AH1      -0.577300
     32 O32         -1.5740     1.8330     1.6390 oh         1 AH1      -0.577300
     33 C33         -2.1860    -0.7470     0.7800 c3         1 AH1       0.129900
     34 O34         -2.1500    -1.8220    -0.1600 os         1 AH1      -0.274900
     35 C35         -3.4400    -2.1020    -0.4870 ca         1 AH1       0.130600
     36 C36         -3.7230    -3.1140    -1.3930 ca         1 AH1      -0.182500
     37 C37         -5.0340    -3.3970    -1.7230 ca         1 AH1      -0.055750
     38 C38         -6.0640    -2.6710    -1.1530 ca         1 AH1      -0.140000
     39 C39         -5.7840    -1.6620    -0.2510 ca         1 AH1      -0.055750
     40 C40         -4.4740    -1.3800     0.0880 ca         1 AH1      -0.182500
     41 H04          2.4780     0.4100     3.0790 h1         1 AH1       0.081200
     42 H05          0.8510     2.0540     1.8180 h1         1 AH1       0.035200
     43 H06         -1.2760     0.4150     3.1020 h1         1 AH1       0.035200
     44 H07         -0.2850    -1.2380     1.6550 h1         1 AH1       0.081200
     45 H081        -1.6670    -0.1370    -1.2580 h1         1 AH1       0.047950
     46 H082        -0.1260     0.1290    -2.0850 h1         1 AH1       0.047950
     47 H10          0.8680     2.3400    -2.1990 ha         1 AH1       0.117750
     48 H11          0.4640     4.7710    -2.1770 ha         1 AH1       0.100750
     49 H12         -1.6000     5.6680    -1.1660 ha         1 AH1       0.099500
     50 H13         -3.2600     4.1320    -0.1840 ha         1 AH1       0.100750
     51 H14         -2.8550     1.7000    -0.2100 ha         1 AH1       0.117750
     52 H161         3.9940    -0.6640     1.7270 h1         1 AH1       0.047950
     53 H162         3.7350    -0.7710    -0.0200 h1         1 AH1       0.047950
     54 H18          4.5850     1.4440     2.7780 ha         1 AH1       0.117750
     55 H19          5.6390     3.6530     2.4850 ha         1 AH1       0.100750
     56 H20          5.8520     4.6300     0.2330 ha         1 AH1       0.099500
     57 H21          5.0170     3.3940    -1.7310 ha         1 AH1       0.100750
     58 H22          3.9640     1.1820    -1.4400 ha         1 AH1       0.117750
     59 H231         0.0160    -0.9650     3.2810 h1         1 AH1       0.039450
     60 H232         0.9610    -1.8480     2.0740 h1         1 AH1       0.039450
     61 H26          2.6790    -3.3470     5.8100 ha         1 AH1       0.122750
     62 H27          1.5790    -5.4460     6.4860 ha         1 AH1       0.102500
     63 H28         -0.5040    -6.1600     5.3780 ha         1 AH1       0.106000
     64 H29         -1.4930    -4.7750     3.5980 ha         1 AH1       0.102500
     65 H30         -0.4020    -2.6730     2.9170 ha         1 AH1       0.122750
     66 HO1          0.8230     2.7220     3.8130 ho         1 AH1       0.395000
     67 HO2         -2.0190     2.2900     2.3330 ho         1 AH1       0.395000
     68 H331        -2.6640     0.1130     0.3270 h1         1 AH1       0.039450
     69 H332        -2.7480    -1.0520     1.6550 h1         1 AH1       0.039450
     70 H36         -2.9160    -3.6830    -1.8400 ha         1 AH1       0.122750
     71 H37         -5.2550    -4.1870    -2.4300 ha         1 AH1       0.102500
     72 H38         -7.0910    -2.8930    -1.4150 ha         1 AH1       0.106000
     73 H39         -6.5920    -1.0960     0.1970 ha         1 AH1       0.102500
     74 H40         -4.2550    -0.5890     0.7950 ha         1 AH1       0.122750
@<TRIPOS>BOND
     1     1     2 1   
     2     1     7 1   
     3     1     8 1   
     4     2     3 1   
     5     2    15 2   
     6     3     4 1   
     7     3    16 1   
     8     4     5 1   
     9     4    23 1   
    10     4    41 1   
    11     5     6 1   
    12     5    31 1   
    13     5    42 1   
    14     6     7 1   
    15     6    32 1   
    16     6    43 1   
    17     7    33 1   
    18     7    44 1   
    19     8     9 1   
    20     8    45 1   
    21     8    46 1   
    22     9    10 ar  
    23     9    14 ar  
    24    10    11 ar  
    25    10    47 1   
    26    11    12 ar  
    27    11    48 1   
    28    12    13 ar  
    29    12    49 1   
    30    13    14 ar  
    31    13    50 1   
    32    14    51 1   
    33    16    17 1   
    34    16    52 1   
    35    16    53 1   
    36    17    18 ar  
    37    17    22 ar  
    38    18    19 ar  
    39    18    54 1   
    40    19    20 ar  
    41    19    55 1   
    42    20    21 ar  
    43    20    56 1   
    44    21    22 ar  
    45    21    57 1   
    46    22    58 1   
    47    23    24 1   
    48    23    59 1   
    49    23    60 1   
    50    24    25 1   
    51    25    26 ar  
    52    25    30 ar  
    53    26    27 ar  
    54    26    61 1   
    55    27    28 ar  
    56    27    62 1   
    57    28    29 ar  
    58    28    63 1   
    59    29    30 ar  
    60    29    64 1   
    61    30    65 1   
    62    31    66 1   
    63    32    67 1   
    64    33    34 1   
    65    33    68 1   
    66    33    69 1   
    67    34    35 1   
    68    35    36 ar  
    69    35    40 ar  
    70    36    37 ar  
    71    36    70 1   
    72    37    38 ar  
    73    37    71 1   
    74    38    39 ar  
    75    38    72 1   
    76    39    40 ar  
    77    39    73 1   
    78    40    74 1   
@<TRIPOS>SUBSTRUCTURE
     1 AH1         1 TEMP              0 ****  ****    0 ROOT
