@<TRIPOS>MOLECULE
molecule
   23    23     1     0     0
SMALL
bcc


@<TRIPOS>ATOM
      1 O3           0.0000     0.0000     0.0000 oh         1 AH2      -0.592800
      2 C4           1.9420     1.2560    -0.7130 c3         1 AH2       0.114100
      3 C5           3.4700     1.2880    -0.6400 c3         1 AH2       0.145100
      4 O4           1.5290     1.2300    -2.0810 oh         1 AH2      -0.608800
      5 C6           3.9850     2.5700    -1.2960 c3         1 AH2       0.151400
      6 O5           3.8810     1.2550     0.7290 os         1 AH2      -0.388600
      7 O6           5.4140     2.5460    -1.3330 oh         1 AH2      -0.601800
      8 C3           1.4290     0.0000     0.0000 c3         1 AH2       0.130100
      9 C2           1.9420     0.0000     1.4430 c3         1 AH2       0.094100
     10 O2           1.4090     1.1290     2.1390 oh         1 AH2      -0.580800
     11 C1           3.4720     0.0810     1.4330 c3         1 AH2       0.120400
     12 H32         -0.3140    -0.8440    -0.2790 ho         1 AH2       0.402000
     13 H41          1.5390     2.1350    -0.2260 h1         1 AH2       0.075700
     14 H5           3.8720     0.4250    -1.1560 h1         1 AH2       0.055700
     15 H42          0.8300     1.8490    -2.2100 ho         1 AH2       0.413000
     16 H61          3.6530     3.4280    -0.7240 h1         1 AH2       0.036200
     17 H62          3.5990     2.6380    -2.3060 h1         1 AH2       0.036200
     18 H63          5.7280     3.2810    -1.8320 ho         1 AH2       0.401000
     19 H31          1.7960    -0.8810    -0.5130 h1         1 AH2       0.048700
     20 H21          1.6320    -0.9140     1.9350 h1         1 AH2       0.037700
     21 H22          1.1180     0.8630     2.9950 ho         1 AH2       0.402000
     22 H12          3.8360     0.1270     2.4520 h1         1 AH2       0.054200
     23 H11          3.8760    -0.7940     0.9390 h1         1 AH2       0.054200
@<TRIPOS>BOND
     1    11     6 1
     2    11     9 1
     3     6     3 1
     4     9     8 1
     5     9    10 1
     6     3     5 1
     7     3     2 1
     8     8     2 1
     9     8     1 1
    10     5     7 1
    11     2     4 1
    12     1    12 1
    13     2    13 1
    14     3    14 1
    15     4    15 1
    16     5    16 1
    17     5    17 1
    18     7    18 1
    19     8    19 1
    20     9    20 1
    21    10    21 1
    22    11    22 1
    23    11    23 1
@<TRIPOS>SUBSTRUCTURE
     1 AH2         1 TEMP              0 ****  ****    0 ROOT
