@<TRIPOS>MOLECULE
molecule
   59    61     1     0     0
SMALL
bcc


@<TRIPOS>ATOM
      1 N11          0.0000     0.0000     0.0000 ns         1 AH4      -0.475400
      2 C21         12.3010     0.1230   -10.3890 ca         1 AH4       0.193100
      3 C31         16.6800    -2.1520    -7.9680 ca         1 AH4      -0.113000
      4 C22         12.4200    -0.8590   -11.3650 ca         1 AH4      -0.129000
      5 C32         15.3110    -1.9880    -8.0290 ca         1 AH4      -0.129000
      6 C02         10.2250    -0.0020    -4.3840 c          1 AH4       0.687700
      7 C04          8.1450    -0.0020    -3.1160 c3         1 AH4       0.114000
      8 C05          6.6400    -0.0000    -3.3960 c3         1 AH4      -0.102400
      9 C06          5.8750    -0.0010    -2.0710 c3         1 AH4      -0.076400
     10 C07          4.3710     0.0000    -2.3500 c3         1 AH4      -0.085400
     11 C08          3.6060    -0.0000    -1.0250 c3         1 AH4      -0.065400
     12 C09          2.1020    -0.0000    -1.3050 c3         1 AH4      -0.147400
     13 C10          1.3470     0.0000     0.0000 c          1 AH4       0.667100
     14 C14         10.9630    -0.0010    -5.6620 ca         1 AH4      -0.461200
     15 C15         12.3640    -0.0020    -5.6830 ca         1 AH4       0.525200
     16 C17         10.2810    -0.0060    -6.8860 ca         1 AH4       0.525200
     17 C19         12.3040    -0.0020    -7.9840 ca         1 AH4       0.909900
     18 C23         11.7340    -0.7320   -12.5560 ca         1 AH4      -0.113000
     19 C24         10.9290     0.3710   -12.7800 ca         1 AH4      -0.140500
     20 C25         10.8090     1.3500   -11.8100 ca         1 AH4      -0.113000
     21 C26         11.4880     1.2270   -10.6150 ca         1 AH4      -0.129000
     22 C27         14.7640    -1.0360    -8.8810 ca         1 AH4       0.193100
     23 C28         15.5970    -0.2540    -9.6680 ca         1 AH4      -0.129000
     24 C29         16.9660    -0.4220    -9.6030 ca         1 AH4      -0.113000
     25 C30         17.5070    -1.3700    -8.7540 ca         1 AH4      -0.140500
     26 N03          8.8770    -0.0010    -4.3840 ns         1 AH4      -0.586900
     27 N16         12.9860    -0.0020    -6.8460 nb         1 AH4      -0.781000
     28 N18         10.9770    -0.0050    -8.0060 nb         1 AH4      -0.781000
     29 N20         12.9950    -0.0020    -9.1810 nh         1 AH4      -0.582100
     30 O01         10.8330    -0.0030    -3.3310 o          1 AH4      -0.614100
     31 O12         -0.7080     0.0000     1.2250 oh         1 AH4      -0.362100
     32 O13          1.9530    -0.0020     1.0510 o          1 AH4      -0.573100
     33 H1          -0.5000     0.0000    -0.8670 hn         1 AH4       0.317500
     34 H3          13.0520    -1.7220   -11.1920 ha         1 AH4       0.146750
     35 H4          14.6640    -2.6010    -7.4130 ha         1 AH4       0.146750
     36 H5           8.4070     0.8820    -2.5470 h1         1 AH4       0.055700
     37 H6           8.4060    -0.8870    -2.5480 h1         1 AH4       0.055700
     38 H7           6.3780    -0.8840    -3.9650 hc         1 AH4       0.044700
     39 H8           6.3790     0.8850    -3.9630 hc         1 AH4       0.044700
     40 H9           6.1380     0.8830    -1.5020 hc         1 AH4       0.050200
     41 H10          6.1360    -0.8860    -1.5030 hc         1 AH4       0.050200
     42 H11          4.1100     0.8850    -2.9180 hc         1 AH4       0.039700
     43 H12          4.1090    -0.8840    -2.9190 hc         1 AH4       0.039700
     44 H13          3.8680     0.8840    -0.4570 hc         1 AH4       0.063200
     45 H14          3.8680    -0.8850    -0.4570 hc         1 AH4       0.063200
     46 H15          1.8400     0.8840    -1.8730 hc         1 AH4       0.058700
     47 H16          1.8400    -0.8850    -1.8730 hc         1 AH4       0.058700
     48 H17         12.9270    -0.0020    -4.7580 h4         1 AH4       0.036600
     49 H18          9.1980    -0.0090    -6.9120 h4         1 AH4       0.036600
     50 H19         11.8260    -1.4970   -13.3180 ha         1 AH4       0.137500
     51 H20         10.3940     0.4680   -13.7170 ha         1 AH4       0.133500
     52 H21         10.1770     2.2120   -11.9870 ha         1 AH4       0.137500
     53 H22         11.3930     1.9950    -9.8560 ha         1 AH4       0.146750
     54 H23         15.1740     0.4890   -10.3330 ha         1 AH4       0.146750
     55 H24         17.6160     0.1890   -10.2170 ha         1 AH4       0.137500
     56 H25         18.5810    -1.5000    -8.7040 ha         1 AH4       0.133500
     57 H26          8.3770     0.0010    -5.2510 hn         1 AH4       0.310500
     58 H27         -1.6350     0.0000     1.0530 ho         1 AH4       0.397000
     59 H2          17.1080    -2.8940    -7.3040 ha         1 AH4       0.137500
@<TRIPOS>BOND
     1    19    20 ar
     2    19    18 ar
     3    20    21 ar
     4     8     7 1
     5     8     9 1
     6    18     4 ar
     7    10     9 1
     8    10    11 1
     9     7    26 1
    10    12    11 1
    11    12    13 1
    12    26     6 1
    13    21     2 ar
    14    16    28 ar
    15    16    14 ar
    16     4     2 ar
    17    28    17 ar
    18     2    29 1
    19    13     1 1
    20    13    32 2
    21     1    31 1
    22     6    14 1
    23     6    30 2
    24    14    15 ar
    25    17    29 1
    26    17    27 ar
    27    29    22 1
    28    15    27 ar
    29    22    23 ar
    30    22     5 ar
    31    23    24 ar
    32     5     3 ar
    33    24    25 ar
    34     3    25 ar
    35     1    33 1
    36     3    59 1
    37     4    34 1
    38     5    35 1
    39     7    36 1
    40     7    37 1
    41     8    38 1
    42     8    39 1
    43     9    40 1
    44     9    41 1
    45    10    42 1
    46    10    43 1
    47    11    44 1
    48    11    45 1
    49    12    46 1
    50    12    47 1
    51    15    48 1
    52    16    49 1
    53    18    50 1
    54    19    51 1
    55    20    52 1
    56    21    53 1
    57    23    54 1
    58    24    55 1
    59    25    56 1
    60    26    57 1
    61    31    58 1
@<TRIPOS>SUBSTRUCTURE
     1 AH4         1 TEMP              0 ****  ****    0 ROOT
