@<TRIPOS>MOLECULE
AH7
   43    45     1     0     0
SMALL
bcc


@<TRIPOS>ATOM
      1 C10          0.0000     0.0000     0.0000 c3         1 AH7       0.191500
      2 C11         -0.5020    -0.0000    -1.4210 ca         1 AH7      -0.088300
      3 C12          0.1770    -0.7090    -2.3950 ca         1 AH7      -0.096000
      4 C13         -0.2830    -0.7080    -3.6980 ca         1 AH7      -0.094000
      5 C14         -1.4230     0.0010    -4.0280 ca         1 AH7      -0.098000
      6 C15         -2.1020     0.7090    -3.0550 ca         1 AH7      -0.094000
      7 C16         -1.6450     0.7040    -1.7510 ca         1 AH7      -0.096000
      8 C17          1.5300     0.0000     0.0000 c3         1 AH7      -0.044400
      9 C18          2.0400     0.0000     1.4420 c3         1 AH7      -0.076400
     10 C19          1.5300    -1.2490     2.1630 c3         1 AH7       0.374600
     11 C22          0.0000    -1.2490     2.1630 c3         1 AH7      -0.076400
     12 C23         -0.5100    -1.2490     0.7200 c3         1 AH7      -0.044400
     13 C25          0.9470     3.7310    -1.3410 ca         1 AH7       0.531700
     14 C05          0.5790     4.8830    -0.6340 ca         1 AH7      -0.479200
     15 C06         -0.1670     4.7300     0.5410 ca         1 AH7       0.531700
     16 C08         -0.1260     2.4480     0.2400 ca         1 AH7       0.737900
     17 F20          1.9970    -2.3920     1.5040 f          1 AH7      -0.221800
     18 F21          1.9970    -1.2490     3.4820 f          1 AH7      -0.221800
     19 N03          0.6020     7.3200    -0.4220 ns         1 AH7      -0.060400
     20 N07         -0.4940     3.5150     0.9380 nb         1 AH7      -0.699500
     21 N09         -0.4880     1.1960     0.6890 nu         1 AH7      -0.470900
     22 N24          0.5810     2.5520    -0.8770 nb         1 AH7      -0.699500
     23 O01          1.6130     6.3380    -2.1390 o          1 AH7      -0.622100
     24 O04          0.9730     8.6060    -0.8850 oh         1 AH7      -0.435100
     25 H1           1.0710    -1.2650    -2.1360 ha         1 AH7       0.108500
     26 H2           0.2490    -1.2640    -4.4610 ha         1 AH7       0.103500
     27 H3          -1.7830     0.0030    -5.0500 ha         1 AH7       0.103000
     28 H4          -2.9970     1.2630    -3.3130 ha         1 AH7       0.103500
     29 H5          -2.1780     1.2590    -0.9880 ha         1 AH7       0.108500
     30 H6           1.8900     0.8860    -0.5090 hc         1 AH7       0.048700
     31 H7           1.8900    -0.8860    -0.5090 hc         1 AH7       0.048700
     32 H8           1.6770     0.8840     1.9530 hc         1 AH7       0.042200
     33 H9           3.1240    -0.0030     1.4410 hc         1 AH7       0.042200
     34 H10         -0.3600    -0.3630     2.6720 hc         1 AH7       0.042200
     35 H11         -0.3590    -2.1350     2.6710 hc         1 AH7       0.042200
     36 H12         -0.1460    -2.1330     0.2100 hc         1 AH7       0.048700
     37 H13         -1.5930    -1.2470     0.7220 hc         1 AH7       0.048700
     38 H14          1.5250     3.8080    -2.2540 h4         1 AH7      -0.008400
     39 H15         -0.4710     5.5970     1.1150 h4         1 AH7      -0.008400
     40 H16          0.0710     7.2250     0.4210 hn         1 AH7       0.157500
     41 H17         -1.1060     1.1050     1.4720 hn         1 AH7       0.307800
     42 H18          0.6400     9.2610    -0.2940 ho         1 AH7       0.392000
     43 C02          0.9660     6.2240    -1.1160 c          1 AH7       0.617700
@<TRIPOS>BOND
     1     1     2 1   
     2     1     8 1   
     3     1    12 1   
     4     1    21 1   
     5     2     3 ar  
     6     2     7 ar  
     7     3     4 ar  
     8     3    25 1   
     9     4     5 ar  
    10     4    26 1   
    11     5     6 ar  
    12     5    27 1   
    13     6     7 ar  
    14     6    28 1   
    15     7    29 1   
    16     8     9 1   
    17     8    30 1   
    18     8    31 1   
    19     9    10 1   
    20     9    32 1   
    21     9    33 1   
    22    10    11 1   
    23    10    17 1   
    24    10    18 1   
    25    11    12 1   
    26    11    34 1   
    27    11    35 1   
    28    12    36 1   
    29    12    37 1   
    30    13    14 ar  
    31    13    22 ar  
    32    13    38 1   
    33    14    15 ar  
    34    14    43 1   
    35    15    20 ar  
    36    15    39 1   
    37    16    20 ar  
    38    16    21 1   
    39    16    22 ar  
    40    19    24 1   
    41    19    40 1   
    42    19    43 1   
    43    21    41 1   
    44    23    43 2   
    45    24    42 1   
@<TRIPOS>SUBSTRUCTURE
     1 AH7         1 TEMP              0 ****  ****    0 ROOT
