@<TRIPOS>MOLECULE
molecule
   43    45     1     0     0
SMALL
bcc


@<TRIPOS>ATOM
      1 C10          0.0000     0.0000     0.0000 c3         1 AH7       0.306500
      2 C11         -0.5020    -0.0000    -1.4210 ca         1 AH7      -0.081300
      3 C12          0.1770    -0.7090    -2.3950 ca         1 AH7      -0.115500
      4 C13         -0.2830    -0.7080    -3.6980 ca         1 AH7      -0.125000
      5 C14         -1.4230     0.0010    -4.0280 ca         1 AH7      -0.125000
      6 C15         -2.1020     0.7090    -3.0550 ca         1 AH7      -0.125000
      7 C16         -1.6450     0.7040    -1.7510 ca         1 AH7      -0.115500
      8 C17          1.5300     0.0000     0.0000 c3         1 AH7      -0.087400
      9 C18          2.0400     0.0000     1.4420 c3         1 AH7      -0.122900
     10 C19          1.5300    -1.2490     2.1630 c3         1 AH7       0.400600
     11 C22          0.0000    -1.2490     2.1630 c3         1 AH7      -0.122900
     12 C23         -0.5100    -1.2490     0.7200 c3         1 AH7      -0.087400
     13 C25          0.9470     3.7310    -1.3410 ca         1 AH7       0.540700
     14 C05          0.5790     4.8830    -0.6340 ca         1 AH7      -0.464200
     15 C06         -0.1670     4.7300     0.5410 ca         1 AH7       0.540700
     16 C08         -0.1260     2.4480     0.2400 ca         1 AH7       0.956900
     17 F20          1.9970    -2.3920     1.5040 f          1 AH7      -0.238800
     18 F21          1.9970    -1.2490     3.4820 f          1 AH7      -0.238800
     19 N03          0.6020     7.3200    -0.4220 ns         1 AH7      -0.472400
     20 N07         -0.4940     3.5150     0.9380 nb         1 AH7      -0.796500
     21 N09         -0.4880     1.1960     0.6890 nu         1 AH7      -0.883900
     22 N24          0.5810     2.5520    -0.8770 nb         1 AH7      -0.796500
     23 O01          1.6130     6.3380    -2.1390 o          1 AH7      -0.577100
     24 O04          0.9730     8.6060    -0.8850 oh         1 AH7      -0.357100
     25 H1           1.0710    -1.2650    -2.1360 ha         1 AH7       0.131500
     26 H2           0.2490    -1.2640    -4.4610 ha         1 AH7       0.130500
     27 H3          -1.7830     0.0030    -5.0500 ha         1 AH7       0.130000
     28 H4          -2.9970     1.2630    -3.3130 ha         1 AH7       0.130500
     29 H5          -2.1780     1.2590    -0.9880 ha         1 AH7       0.131500
     30 H6           1.8900     0.8860    -0.5090 hc         1 AH7       0.074700
     31 H7           1.8900    -0.8860    -0.5090 hc         1 AH7       0.074700
     32 H8           1.6770     0.8840     1.9530 hc         1 AH7       0.068950
     33 H9           3.1240    -0.0030     1.4410 hc         1 AH7       0.068950
     34 H10         -0.3600    -0.3630     2.6720 hc         1 AH7       0.068950
     35 H11         -0.3590    -2.1350     2.6710 hc         1 AH7       0.068950
     36 H12         -0.1460    -2.1330     0.2100 hc         1 AH7       0.074700
     37 H13         -1.5930    -1.2470     0.7220 hc         1 AH7       0.074700
     38 H14          1.5250     3.8080    -2.2540 h4         1 AH7       0.039600
     39 H15         -0.4710     5.5970     1.1150 h4         1 AH7       0.039600
     40 H16          0.0710     7.2250     0.4210 hn         1 AH7       0.317500
     41 H17         -1.1060     1.1050     1.4720 hn         1 AH7       0.460800
     42 H18          0.6400     9.2610    -0.2940 ho         1 AH7       0.399000
     43 C02          0.9660     6.2240    -1.1160 c          1 AH7       0.702700
@<TRIPOS>BOND
     1    24    19 1
     2     5     6 ar
     3     5     4 ar
     4    19    43 1
     5     6     7 ar
     6    23    43 2
     7    43    14 1
     8     4     3 ar
     9    13    14 ar
    10    13    22 ar
    11    14    15 ar
    12     7     2 ar
    13     3     2 ar
    14    22    16 ar
    15     2     1 1
    16    15    20 ar
    17    16    20 ar
    18    16    21 1
    19     1    21 1
    20     1    12 1
    21     1     8 1
    22    12    11 1
    23     8     9 1
    24    11    10 1
    25     9    10 1
    26    10    17 1
    27    10    18 1
    28     3    25 1
    29     4    26 1
    30     5    27 1
    31     6    28 1
    32     7    29 1
    33     8    30 1
    34     8    31 1
    35     9    32 1
    36     9    33 1
    37    11    34 1
    38    11    35 1
    39    12    36 1
    40    12    37 1
    41    13    38 1
    42    15    39 1
    43    19    40 1
    44    21    41 1
    45    24    42 1
@<TRIPOS>SUBSTRUCTURE
     1 AH7         1 TEMP              0 ****  ****    0 ROOT
