@<TRIPOS>MOLECULE
AH8
   21    21     1     0     0
SMALL
bcc


@<TRIPOS>ATOM
      1 C1          0.1630   -0.0610    0.0340 c3        1 AH8      0.370300
      2 N1         -0.3270    1.1940   -0.5420 n2        1 AH8     -0.477200
      3 C2          1.7140    0.0080    0.1540 c3        1 AH8      0.105100
      4 N2         -1.5550    1.4410   -0.5960 n1        1 AH8      0.237000
      5 O2          2.1950   -1.2120   -0.3750 oh        1 AH8     -0.587800
      6 C3          1.9950    0.1180    1.6710 c3        1 AH8      0.088100
      7 N3         -2.6070    1.8430   -0.7210 n1        1 AH8     -0.032000
      8 O3          2.6940    1.2990    1.9890 oh        1 AH8     -0.582800
      9 C4          0.6180    0.0440    2.3530 c3        1 AH8      0.068100
     10 O4         -0.3550   -0.2990    1.3550 os        1 AH8     -0.443600
     11 C5          0.5590   -1.0400    3.4300 c3        1 AH8      0.133400
     12 O5         -0.6930   -1.0460    4.0790 oh        1 AH8     -0.592800
     13 H1         -0.1540   -0.9640   -0.5700 h2        1 AH8      0.100700
     14 H2          2.1620    0.8780   -0.3980 h1        1 AH8      0.082700
     15 HO2         3.1560   -1.1330   -0.4260 ho        1 AH8      0.415000
     16 H3          2.6720   -0.7120    2.0140 h1        1 AH8      0.100700
     17 HO3         2.1400    2.0500    1.7360 ho        1 AH8      0.411000
     18 H4          0.3240    1.0380    2.7890 h1        1 AH8      0.073700
     19 H5          0.7690   -2.0450    2.9750 h1        1 AH8      0.058200
     20 H5A         1.3070   -0.8140    4.2360 h1        1 AH8      0.058200
     21 HO5        -1.3640   -1.2020    3.4010 ho        1 AH8      0.413000
@<TRIPOS>BOND
     1    1    2 1   
     2    1    3 1   
     3    1   10 1   
     4    1   13 1   
     5    2    4 1   
     6    3    5 1   
     7    3    6 1   
     8    3   14 1   
     9    4    7 3   
    10    5   15 1   
    11    6    8 1   
    12    6    9 1   
    13    6   16 1   
    14    8   17 1   
    15    9   10 1   
    16    9   11 1   
    17    9   18 1   
    18   11   12 1   
    19   11   19 1   
    20   11   20 1   
    21   12   21 1   
@<TRIPOS>SUBSTRUCTURE
     1 AH8         1 TEMP              0 ****  ****    0 ROOT
