@<TRIPOS>MOLECULE
molecule
   22    21     1     0     0
SMALL
bcc


@<TRIPOS>ATOM
      1 C1           0.0000     0.0000     0.0000 c          1 AHA       0.890600
      2 C2           1.5060     0.0000     0.0000 c3         1 AHA      -0.184400
      3 C3           2.0160     0.0000     1.4420 c3         1 AHA      -0.060400
      4 C4           3.5450    -0.0000     1.4420 c3         1 AHA      -0.082400
      5 C5           4.0570    -0.0020     2.8840 c3         1 AHA      -0.111400
      6 C6           5.5860    -0.0010     2.8840 c3         1 AHA       0.083800
      7 N            6.0770    -0.0030     4.2680 nz         1 AHA      -0.811600
      8 O1          -0.6720     0.0020    -1.1610 o          1 AHA      -0.839300
      9 O2          -0.6040    -0.0010     1.0460 o          1 AHA      -0.839300
     10 H21          1.8670    -0.8840    -0.5110 hc         1 AHA       0.032700
     11 H22          1.8670     0.8840    -0.5110 hc         1 AHA       0.032700
     12 H31          1.6550     0.8850     1.9530 hc         1 AHA       0.053700
     13 H32          1.6550    -0.8840     1.9530 hc         1 AHA       0.053700
     14 H41          3.9060    -0.8840     0.9300 hc         1 AHA       0.045700
     15 H42          3.9060     0.8850     0.9320 hc         1 AHA       0.045700
     16 H51          3.6950     0.8810     3.3960 hc         1 AHA       0.062700
     17 H52          3.6960    -0.8880     3.3930 hc         1 AHA       0.062700
     18 H61          5.9470     0.8840     2.3750 hx         1 AHA       0.107200
     19 H62          5.9480    -0.8850     2.3720 hx         1 AHA       0.107200
     20 HN1          5.7430     0.8130     4.7410 hn         1 AHA       0.450133
     21 HN2          5.7440    -0.8210     4.7390 hn         1 AHA       0.450133
     22 HN3          7.0780    -0.0020     4.2670 hn         1 AHA       0.450133
@<TRIPOS>BOND
     1     1     2 1
     2     1     8 1
     3     1     9 1
     4     2     3 1
     5     2    10 1
     6     2    11 1
     7     3     4 1
     8     3    12 1
     9     3    13 1
    10     4     5 1
    11     4    14 1
    12     4    15 1
    13     5     6 1
    14     5    16 1
    15     5    17 1
    16     6     7 1
    17     6    18 1
    18     6    19 1
    19     7    20 1
    20     7    21 1
    21    22     7 1
@<TRIPOS>SUBSTRUCTURE
     1 AHA         1 TEMP              0 ****  ****    0 ROOT
