@<TRIPOS>MOLECULE
molecule
   22    22     1     0     0
SMALL
bcc


@<TRIPOS>ATOM
      1 CA           0.0000     0.0000     0.0000 c3         1 AHC      -0.177400
      2 C            1.5070     0.0000     0.0000 c          1 AHC       0.890600
      3 OT1          2.1110     0.0000     1.0460 o          1 AHC      -0.854800
      4 OT2          2.1780     0.0020    -1.1620 o          1 AHC      -0.854800
      5 CB          -0.5100     0.0000     1.4420 c3         1 AHC      -0.028100
      6 CG          -2.0160     0.0000     1.4410 ca         1 AHC      -0.057300
      7 CD1         -2.7070    -1.1980     1.4400 ca         1 AHC      -0.131000
      8 CD2         -2.7060     1.1980     1.4420 ca         1 AHC      -0.131000
      9 CE1         -4.0880    -1.2020     1.4410 ca         1 AHC      -0.148000
     10 CE2         -4.0870     1.2020     1.4370 ca         1 AHC      -0.148000
     11 CZ          -4.7830    -0.0010     1.4410 ca         1 AHC       0.126600
     12 NH          -6.1800    -0.0010     1.4400 nv         1 AHC      -0.991200
     13 HA1         -0.3610    -0.8850    -0.5110 hc         1 AHC       0.032200
     14 HA2         -0.3610     0.8840    -0.5110 hc         1 AHC       0.032200
     15 HB1         -0.1490     0.8850     1.9530 hc         1 AHC       0.054700
     16 HB2         -0.1490    -0.8840     1.9530 hc         1 AHC       0.054700
     17 HD1         -2.1640    -2.1350     1.4400 ha         1 AHC       0.132000
     18 HD2         -2.1620     2.1350     1.4400 ha         1 AHC       0.132000
     19 HE1         -4.6270    -2.1410     1.4420 ha         1 AHC       0.119000
     20 HE2         -4.6260     2.1410     1.4380 ha         1 AHC       0.119000
     21 HNH1        -6.6810    -0.0010     0.5730 hn         1 AHC       0.414300
     22 HNH2        -6.6810     0.0000     2.3070 hn         1 AHC       0.414300
@<TRIPOS>BOND
     1     1     2 1
     2     1     5 1
     3     1    13 1
     4     1    14 1
     5     2     3 1
     6     2     4 1
     7     5     6 1
     8     5    15 1
     9     5    16 1
    10     6     7 ar
    11     6     8 ar
    12     7     9 ar
    13     7    17 1
    14     8    10 ar
    15     8    18 1
    16     9    11 ar
    17     9    19 1
    18    10    11 ar
    19    10    20 1
    20    11    12 1
    21    12    21 1
    22    12    22 1
@<TRIPOS>SUBSTRUCTURE
     1 AHC         1 TEMP              0 ****  ****    0 ROOT
