@<TRIPOS>MOLECULE
AHD
   23    22     1     0     0
SMALL
bcc


@<TRIPOS>ATOM
      1 C2          0.0140   -0.1800    0.2530 c3        1 AHD     -0.106400
      2 C3          1.4870    0.2140    0.1430 c3        1 AHD      0.126800
      3 C7         -0.7120    0.6540    1.3000 c3        1 AHD     -0.054400
      4 C8         -2.1870    0.3340    1.4400 c3        1 AHD     -0.163600
      5 O12        -1.7870   -1.9190    2.7060 o         1 AHD     -0.984667
      6 P9         -2.2950   -0.5100    3.0630 p5        1 AHD      1.250700
      7 O10        -3.7020   -0.5950    3.6310 o         1 AHD     -0.984667
      8 O11        -1.3450    0.1300    4.0730 o         1 AHD     -0.984667
      9 P14        -2.9430    1.8400    0.4850 p5        1 AHD      1.250700
     10 O15        -2.5820    3.1030    1.2520 o         1 AHD     -0.984667
     11 O16        -4.4410    1.7250    0.2790 o         1 AHD     -0.984667
     12 O17        -2.2120    1.8350   -0.8580 o         1 AHD     -0.984667
     13 O13        -2.6160   -0.6510    0.5200 oh        1 AHD     -0.634800
     14 N4          2.2450   -0.4580   -0.9100 n3        1 AHD     -0.935800
     15 H21        -0.0620   -1.2650    0.5240 hc        1 AHD      0.051700
     16 H22        -0.5030   -0.0200   -0.7310 hc        1 AHD      0.051700
     17 H31         1.5550    1.3210   -0.0450 h1        1 AHD      0.026700
     18 H32         2.0070   -0.0030    1.1180 h1        1 AHD      0.026700
     19 H71        -0.5860    1.7390    1.0230 hc        1 AHD      0.027200
     20 H72        -0.1900    0.5080    2.2890 hc        1 AHD      0.027200
     21 H13        -2.3260   -1.5170    0.8560 ho        1 AHD      0.356000
     22 HN41        2.1230   -1.4500   -0.7960 hn        1 AHD      0.304800
     23 HN42        1.8170   -0.2310   -1.7920 hn        1 AHD      0.304800
@<TRIPOS>BOND
     1    1    2 1   
     2    1    3 1   
     3    1   15 1   
     4    1   16 1   
     5    2   14 1   
     6    2   17 1   
     7    2   18 1   
     8    3    4 1   
     9    3   19 1   
    10    3   20 1   
    11    4    6 1   
    12    4    9 1   
    13    4   13 1   
    14    5    6 1   
    15    6    7 1   
    16    6    8 1   
    17    9   10 1   
    18    9   11 1   
    19    9   12 1   
    20   13   21 1   
    21   14   22 1   
    22   14   23 1   
@<TRIPOS>SUBSTRUCTURE
     1 AHD         1 TEMP              0 ****  ****    0 ROOT
