@<TRIPOS>MOLECULE
molecule
   24    23     1     0     0
SMALL
bcc


@<TRIPOS>ATOM
      1 C2           0.0000     0.0000     0.0000 c3         1 AHD      -0.133400
      2 C3           1.5300     0.0000     0.0000 c3         1 AHD       0.055800
      3 C7          -0.5100     0.0000     1.4430 c3         1 AHD      -0.020400
      4 C8          -2.0390     0.0010     1.4430 c3         1 AHD      -0.009600
      5 O12         -2.2320    -1.3390     3.8620 o          1 AHD      -0.866000
      6 P9          -2.6470    -0.0000     3.1620 p5         1 AHD       1.014200
      7 O10         -4.2080     0.1290     3.1640 o          1 AHD      -0.866000
      8 O11         -2.0210     1.2090     3.9370 o          1 AHD      -0.866000
      9 P14         -2.6460     1.4900     0.5840 p5         1 AHD       1.014200
     10 O15         -2.1240     2.7690     1.3230 o          1 AHD      -0.866000
     11 O16         -4.2130     1.4900     0.5850 o          1 AHD      -0.866000
     12 O17         -2.1250     1.4900    -0.8930 o          1 AHD      -0.866000
     13 O13         -2.5170    -1.1660     0.7690 oh         1 AHD      -0.628800
     14 N4           2.0200     0.0000    -1.3860 nz         1 AHD      -0.806600
     15 H21         -0.3610    -0.8850    -0.5110 hc         1 AHD       0.094200
     16 H22         -0.3610     0.8850    -0.5110 hc         1 AHD       0.094200
     17 H31          1.8910    -0.8850     0.5110 hx         1 AHD       0.043700
     18 H32          1.8910     0.8850     0.5110 hx         1 AHD       0.043700
     19 H71         -0.1480     0.8840     1.9530 hc         1 AHD       0.042700
     20 H72         -0.1490    -0.8850     1.9530 hc         1 AHD       0.042700
     21 H13         -3.4100    -1.3310     1.0200 ho         1 AHD       0.411000
     22 HN41         1.7250    -0.8390    -1.8440 hn         1 AHD       0.312467
     23 HN42         3.0190     0.0470    -1.3870 hn         1 AHD       0.312467
     24 H43          1.6490     0.7930    -1.8710 hn         1 AHD       0.312467
@<TRIPOS>BOND
     1     1     2 1
     2     1     3 1
     3     1    15 1
     4     1    16 1
     5     2    14 1
     6     2    17 1
     7     2    18 1
     8     3     4 1
     9     3    19 1
    10     3    20 1
    11     4     6 1
    12     4     9 1
    13     4    13 1
    14     5     6 1
    15     6     7 1
    16     6     8 1
    17     9    10 1
    18     9    11 1
    19     9    12 1
    20    13    21 1
    21    14    22 1
    22    14    23 1
    23    24    14 1
@<TRIPOS>SUBSTRUCTURE
     1 AHD         1 TEMP              0 ****  ****    0 ROOT
