@<TRIPOS>MOLECULE
molecule
   40    39     1     0     0
SMALL
bcc


@<TRIPOS>ATOM
      1 N1           0.0000     0.0000     0.0000 nz         1 AHE      -0.791600
      2 CA1          1.4690     0.0000     0.0000 c3         1 AHE      -0.022500
      3 CB1          1.9800     0.0000     1.4420 c3         1 AHE      -0.075400
      4 CG1          1.4700     1.2490     2.1640 c3         1 AHE      -0.177400
      5 CD1          1.9730     1.2470     3.5850 c          1 AHE       0.662100
      6 OE1          2.6690     0.3390     3.9800 o          1 AHE      -0.581100
      7 N2           1.6480     2.2580     4.4150 ns         1 AHE      -0.563900
      8 CA2          2.1370     2.2580     5.7950 c3         1 AHE       0.052700
      9 CB2          3.4840     2.9780     5.8600 c3         1 AHE      -0.013300
     10 SG2          4.6770     2.1240     4.7950 ss         1 AHE      -0.263200
     11 CD2          6.1390     3.1660     5.0600 c3         1 AHE       0.211500
     12 OE2          7.2320     2.6580     4.2940 oh         1 AHE      -0.580800
     13 C2           1.1440     2.9670     6.6790 c          1 AHE       0.633100
     14 O2           0.1280     3.4290     6.2030 o          1 AHE      -0.653100
     15 N3           1.3840     3.0910     8.0000 ns         1 AHE      -0.533900
     16 CA3          0.4200     3.7800     8.8590 c3         1 AHE      -0.007000
     17 C3           0.9230     3.7810    10.2800 c          1 AHE       0.882600
     18 O31          0.1980     4.3620    11.2490 o          1 AHE      -0.839300
     19 O32          1.9790     3.2570    10.5470 o          1 AHE      -0.839300
     20 C1           1.9720    -1.2300    -0.7110 c          1 AHE       0.871600
     21 O11          3.1430    -1.1970    -1.3640 o          1 AHE      -0.779800
     22 O12          1.3190    -2.2460    -0.6950 o          1 AHE      -0.779800
     23 HN11        -0.3340    -0.6190     0.7120 hn         1 AHE       0.437133
     24 HN12        -0.3340     0.9260     0.1800 hn         1 AHE       0.437133
     25 HA1          1.8300     0.8850    -0.5100 hx         1 AHE       0.100700
     26 HB11         3.0630     0.0000     1.4410 hc         1 AHE       0.104200
     27 HB12         1.6190    -0.8850     1.9520 hc         1 AHE       0.104200
     28 HG11         1.8310     2.1330     1.6540 hc         1 AHE       0.043700
     29 HG12         0.3870     1.2480     2.1650 hc         1 AHE       0.043700
     30 HN2          1.0460     2.9920     4.0970 hn         1 AHE       0.330500
     31 HA2          2.2570     1.2360     6.1350 h1         1 AHE       0.107700
     32 HB21         3.8450     2.9760     6.8810 h1         1 AHE       0.071700
     33 HB22         3.3630     4.0000     5.5220 h1         1 AHE       0.071700
     34 HD21         5.9200     4.1800     4.7490 h2         1 AHE       0.031700
     35 HD22         6.4000     3.1590     6.1120 h2         1 AHE       0.031700
     36 HE2          8.0220     3.1140     4.5330 ho         1 AHE       0.399000
     37 HN3          2.2210     2.7080     8.3940 hn         1 AHE       0.337500
     38 HA31         0.2980     4.8010     8.5190 h1         1 AHE       0.048700
     39 HA32        -0.5340     3.2680     8.8150 h1         1 AHE       0.048700
     40 H13         -0.3340    -0.3020    -0.8940 hn         1 AHE       0.437133
@<TRIPOS>BOND
     1     1     2 1
     2     1    23 1
     3     1    24 1
     4     2     3 1
     5     2    20 1
     6     2    25 1
     7     3     4 1
     8     3    26 1
     9     3    27 1
    10     4     5 1
    11     4    28 1
    12     4    29 1
    13     5     6 2
    14     5     7 1
    15     7     8 1
    16     7    30 1
    17     8     9 1
    18     8    13 1
    19     8    31 1
    20     9    10 1
    21     9    32 1
    22     9    33 1
    23    10    11 1
    24    11    12 1
    25    11    34 1
    26    11    35 1
    27    12    36 1
    28    13    14 2
    29    13    15 1
    30    15    16 1
    31    15    37 1
    32    16    17 1
    33    16    38 1
    34    16    39 1
    35    17    18 1
    36    17    19 1
    37    20    21 1
    38    20    22 1
    39    40     1 1
@<TRIPOS>SUBSTRUCTURE
     1 AHE         1 TEMP              0 ****  ****    0 ROOT
