@<TRIPOS>MOLECULE
AHG
   29    29     1     0     0
SMALL
bcc


@<TRIPOS>ATOM
      1 P1          1.8040    0.3010   -0.6660 p5        1 AHG      1.330900
      2 O1P         2.2890    0.7730   -2.0190 o         1 AHG     -0.946333
      3 O2P         2.4220    0.9840    0.5280 o         1 AHG     -0.946333
      4 O3P         1.6560   -1.1930   -0.5280 o         1 AHG     -0.946333
      5 O1          0.1870    0.8900   -0.6680 os        1 AHG     -0.584200
      6 C1         -0.5550    0.6330   -1.8020 c3        1 AHG      0.227400
      7 C2         -1.1740    1.9340   -2.3550 c3        1 AHG      0.075100
      8 C3         -0.4610    2.6270   -3.5420 c3        1 AHG      0.134100
      9 O3          0.5300    1.8600   -4.1870 oh        1 AHG     -0.665800
     10 C4         -1.5920    2.9190   -4.5630 c3        1 AHG      0.134100
     11 O4         -1.5320    4.2690   -4.9760 oh        1 AHG     -0.665800
     12 C5         -2.8940    2.6100   -3.7930 c3        1 AHG      0.075100
     13 O5         -2.5260    1.6550   -2.7810 os        1 AHG     -0.444600
     14 C6         -4.0330    2.0530   -4.6710 c3        1 AHG      0.227400
     15 O6         -5.1350    2.8800   -4.6610 os        1 AHG     -0.584200
     16 P2         -5.4890    3.6630   -6.1540 p5        1 AHG      1.330900
     17 O4P        -5.8010    2.5240   -7.0930 o         1 AHG     -0.946333
     18 O5P        -6.6680    4.5430   -5.8170 o         1 AHG     -0.946333
     19 O6P        -4.1870    4.3810   -6.4280 o         1 AHG     -0.946333
     20 H11         0.0680    0.1250   -2.5880 h1        1 AHG      0.000450
     21 H12        -1.4210   -0.0460   -1.5400 h1        1 AHG      0.000450
     22 H2         -1.2440    2.6770   -1.5110 h1        1 AHG      0.033200
     23 H3         -0.0010    3.5910   -3.1880 h1        1 AHG      0.029200
     24 HO3         1.1610    1.5560   -3.4980 ho        1 AHG      0.480000
     25 H4         -1.4810    2.2480   -5.4570 h1        1 AHG      0.029200
     26 HO4        -2.3610    4.4330   -5.4760 ho        1 AHG      0.480000
     27 H5         -3.2510    3.5440   -3.2770 h1        1 AHG      0.033200
     28 H61        -3.6560    1.9150   -5.7240 h1        1 AHG      0.000450
     29 H62        -4.3220    1.0430   -4.2550 h1        1 AHG      0.000450
@<TRIPOS>BOND
     1    1    2 1   
     2    1    3 1   
     3    1    4 1   
     4    1    5 1   
     5    5    6 1   
     6    6    7 1   
     7    6   20 1   
     8    6   21 1   
     9    7    8 1   
    10    7   13 1   
    11    7   22 1   
    12    8    9 1   
    13    8   10 1   
    14    8   23 1   
    15    9   24 1   
    16   10   11 1   
    17   10   12 1   
    18   10   25 1   
    19   11   26 1   
    20   12   13 1   
    21   12   14 1   
    22   12   27 1   
    23   14   15 1   
    24   14   28 1   
    25   14   29 1   
    26   15   16 1   
    27   16   17 1   
    28   16   18 1   
    29   16   19 1   
@<TRIPOS>SUBSTRUCTURE
     1 AHG         1 TEMP              0 ****  ****    0 ROOT
