@<TRIPOS>MOLECULE
molecule
   29    29     1     0     0
SMALL
bcc


@<TRIPOS>ATOM
      1 P1           0.0000     0.0000     0.0000 p5         1 AHG       1.185900
      2 O1P          1.4800     0.0000     0.0000 o          1 AHG      -0.929833
      3 O2P         -0.5370     0.0000     1.5180 o          1 AHG      -0.929833
      4 O3P         -0.5390    -1.3120    -0.7590 o          1 AHG      -0.929833
      5 O1          -0.5360     1.3160    -0.7580 os         1 AHG      -0.524700
      6 C1          -0.0300     1.2590    -2.0920 c3         1 AHG       0.167400
      7 C2          -0.5050     2.4870    -2.8710 c3         1 AHG       0.130100
      8 C3          -0.0650     2.4020    -4.3540 c3         1 AHG       0.076600
      9 O3          -0.1450     1.0580    -4.8330 oh         1 AHG      -0.584800
     10 C4          -1.1130     3.3000    -5.0560 c3         1 AHG       0.076600
     11 O4          -0.5830     4.6080    -5.2730 oh         1 AHG      -0.584800
     12 C5          -2.2920     3.3490    -4.0650 c3         1 AHG       0.130100
     13 O5          -1.9480     2.5130    -2.9500 os         1 AHG      -0.315600
     14 C6          -3.5610     2.8220    -4.7410 c3         1 AHG       0.167400
     15 O6          -4.6470     2.8720    -3.8160 os         1 AHG      -0.524700
     16 P2          -5.9410     2.3080    -4.5890 p5         1 AHG       1.185900
     17 O4P         -5.6880     0.9170    -5.0260 o          1 AHG      -0.929833
     18 O5P         -7.2120     2.3350    -3.5990 o          1 AHG      -0.929833
     19 O6P         -6.2430     3.2290    -5.8750 o          1 AHG      -0.929833
     20 H11         -0.3930     0.3610    -2.5770 h1         1 AHG       0.040450
     21 H12          1.0530     1.2440    -2.0670 h1         1 AHG       0.040450
     22 H2          -0.1350     3.3990    -2.4180 h1         1 AHG       0.028700
     23 H3           0.9320     2.8050    -4.4820 h1         1 AHG       0.025200
     24 HO3          0.5820     0.8850    -5.4070 ho         1 AHG       0.360000
     25 H4          -1.4250     2.8520    -5.9920 h1         1 AHG       0.025200
     26 HO4         -0.5280     4.7760    -6.2000 ho         1 AHG       0.360000
     27 H5          -2.4440     4.3670    -3.7270 h1         1 AHG       0.028700
     28 H61         -3.7920     3.4360    -5.6030 h1         1 AHG       0.040450
     29 H62         -3.4030     1.7990    -5.0580 h1         1 AHG       0.040450
@<TRIPOS>BOND
     1     1     2 1
     2     1     3 1
     3     1     4 1
     4     1     5 1
     5     5     6 1
     6     6     7 1
     7     6    20 1
     8     6    21 1
     9     7     8 1
    10     7    13 1
    11     7    22 1
    12     8     9 1
    13     8    10 1
    14     8    23 1
    15     9    24 1
    16    10    11 1
    17    10    12 1
    18    10    25 1
    19    11    26 1
    20    12    13 1
    21    12    14 1
    22    12    27 1
    23    14    15 1
    24    14    28 1
    25    14    29 1
    26    15    16 1
    27    16    17 1
    28    16    18 1
    29    16    19 1
@<TRIPOS>SUBSTRUCTURE
     1 AHG         1 TEMP              0 ****  ****    0 ROOT
