@<TRIPOS>MOLECULE
AHI
   23    22     1     0     0
SMALL
bcc


@<TRIPOS>ATOM
      1 N10          0.0000     0.0000     0.0000 nz         1 AHI       0.157400
      2 C09          1.3790     0.0000     0.0000 c2         1 AHI       0.236100
      3 NP1          2.0300     0.0000     1.1260 n2         1 AHI      -0.304200
      4 N08          2.0700    -0.0000    -1.1960 nu         1 AHI      -0.469200
      5 C07          1.3380    -0.0000    -2.4640 c3         1 AHI       0.165800
      6 C06          2.3320    -0.0000    -3.6270 c3         1 AHI      -0.035400
      7 C03          1.5670    -0.0000    -4.9520 c3         1 AHI      -0.042200
      8 N02          2.5210    -0.0000    -6.0690 nz         1 AHI       0.095400
      9 O16          1.3220     0.0000     2.3520 oh         1 AHI      -0.359500
     10 H101        -0.3340     0.8170    -0.4720 hn         1 AHI       0.231467
     11 H102        -0.3340     0.0000     0.9440 hn         1 AHI       0.231467
     12 H08          3.0710    -0.0230    -1.1950 hn         1 AHI       0.351800
     13 H071         0.7150    -0.8840    -2.5210 h1         1 AHI       0.019200
     14 H072         0.7150     0.8840    -2.5210 h1         1 AHI       0.019200
     15 H061         2.9550     0.8840    -3.5700 hc         1 AHI       0.052200
     16 H062         2.9550    -0.8840    -3.5700 hc         1 AHI       0.052200
     17 H031         0.9440    -0.8850    -5.0100 hx         1 AHI       0.088700
     18 H032         0.9440     0.8850    -5.0100 hx         1 AHI       0.088700
     19 H021         3.0970     0.8170    -6.0160 hn         1 AHI       0.233467
     20 H022         2.0210    -0.0000    -6.9360 hn         1 AHI       0.233467
     21 H023         3.0970    -0.8170    -6.0160 hn         1 AHI       0.233467
     22 H16          1.9350     0.0010     3.0690 ho         1 AHI       0.491000
     23 H103        -0.3340    -0.8170    -0.4710 hn         1 AHI       0.231467
@<TRIPOS>BOND
     1     1     2 1   
     2     1    10 1   
     3     1    11 1   
     4     1    23 1   
     5     2     3 2   
     6     2     4 1   
     7     3     9 1   
     8     4     5 1   
     9     4    12 1   
    10     5     6 1   
    11     5    13 1   
    12     5    14 1   
    13     6     7 1   
    14     6    15 1   
    15     6    16 1   
    16     7     8 1   
    17     7    17 1   
    18     7    18 1   
    19     8    19 1   
    20     8    20 1   
    21     8    21 1   
    22     9    22 1   
@<TRIPOS>SUBSTRUCTURE
     1 AHI         1 TEMP              0 ****  ****    0 ROOT
