@<TRIPOS>MOLECULE
molecule
   23    22     1     0     0
SMALL
bcc


@<TRIPOS>ATOM
      1 N10          0.0000     0.0000     0.0000 nz         1 AHI      -0.782600
      2 C09          1.3790     0.0000     0.0000 c2         1 AHI       0.647100
      3 NP1          2.0300     0.0000     1.1260 n2         1 AHI      -0.393200
      4 N08          2.0700    -0.0000    -1.1960 nu         1 AHI      -0.883200
      5 C07          1.3380    -0.0000    -2.4640 c3         1 AHI       0.232800
      6 C06          2.3320    -0.0000    -3.6270 c3         1 AHI      -0.123400
      7 C03          1.5670    -0.0000    -4.9520 c3         1 AHI       0.100800
      8 N02          2.5210    -0.0000    -6.0690 nz         1 AHI      -0.807600
      9 O16          1.3220     0.0000     2.3520 oh         1 AHI      -0.369500
     10 H101        -0.3340    -0.8170    -0.4720 hn         1 AHI       0.479133
     11 H102        -0.3340     0.0000     0.9440 hn         1 AHI       0.479133
     12 H08          3.0710    -0.0230    -1.1950 hn         1 AHI       0.510800
     13 H071         0.7150     0.8840    -2.5210 h1         1 AHI       0.050700
     14 H072         0.7150    -0.8840    -2.5210 h1         1 AHI       0.050700
     15 H061         2.9550    -0.8840    -3.5700 hc         1 AHI       0.090200
     16 H062         2.9550     0.8840    -3.5700 hc         1 AHI       0.090200
     17 H031         0.9440     0.8850    -5.0100 hx         1 AHI       0.118700
     18 H032         0.9440    -0.8850    -5.0100 hx         1 AHI       0.118700
     19 H021         2.0210    -0.0000    -6.9360 hn         1 AHI       0.470133
     20 H022         3.0970    -0.8170    -6.0160 hn         1 AHI       0.470133
     21 H023         3.0970     0.8170    -6.0160 hn         1 AHI       0.470133
     22 H16          1.9350     0.0010     3.0690 ho         1 AHI       0.502000
     23 H103        -0.3340     0.8170    -0.4720 hn         1 AHI       0.479133
@<TRIPOS>BOND
     1     1     2 1
     2     1    10 1
     3     1    11 1
     4     2     3 2
     5     2     4 1
     6     3     9 1
     7     4     5 1
     8     4    12 1
     9     5     6 1
    10     5    13 1
    11     5    14 1
    12     6     7 1
    13     6    15 1
    14     6    16 1
    15     7     8 1
    16     7    17 1
    17     7    18 1
    18     8    19 1
    19     8    20 1
    20     8    21 1
    21     9    22 1
    22    23     1 1
@<TRIPOS>SUBSTRUCTURE
     1 AHI         1 TEMP              0 ****  ****    0 ROOT
