@<TRIPOS>MOLECULE
molecule
   53    56     1     0     0
SMALL
bcc


@<TRIPOS>ATOM
      1 Cl           0.0000     0.0000     0.0000 cl         1 AHK      -0.046400
      2 C23          1.7360     0.0000     0.0000 ca         1 AHK       0.031400
      3 C8           2.4340     0.0000     1.2060 cp         1 AHK       0.045000
      4 C7           1.6970     0.0050     2.4930 cp         1 AHK      -0.091000
      5 C6           1.7910     1.1010     3.3500 ca         1 AHK      -0.101000
      6 C5           1.1030     1.1000     4.5450 ca         1 AHK      -0.129000
      7 C4           0.3210     0.0140     4.8960 ca         1 AHK      -0.097000
      8 C3           0.2240    -1.0770     4.0510 ca         1 AHK      -0.121000
      9 C2           0.9040    -1.0840     2.8490 ca         1 AHK      -0.042300
     10 C1           0.7930    -2.2700     1.9270 c3         1 AHK      -0.054100
     11 C            1.9610    -3.2260     2.1810 c3         1 AHK      -0.090100
     12 C22          2.4290    -0.0040    -1.1950 ca         1 AHK      -0.101000
     13 C11          3.8110    -0.0050    -1.1960 ca         1 AHK      -0.195300
     14 C10          4.5090    -0.0000    -0.0020 ca         1 AHK      -0.103000
     15 C9           3.8280    -0.0050     1.1990 ca         1 AHK      -0.101000
     16 C12          4.5610    -0.0110    -2.5040 c3         1 AHK       0.164100
     17 N            4.8060     1.3730    -2.9340 ny         1 AHK      -0.737000
     18 C13          5.5370     1.3670    -4.2090 c3         1 AHK       0.097800
     19 C14          5.7900     2.8070    -4.6570 c3         1 AHK      -0.092700
     20 C15          6.5400     2.8020    -5.9640 cc         1 AHK       0.368800
     21 N2           6.1370     3.4370    -7.0970 na         1 AHK      -0.251300
     22 C21          7.0890     3.1930    -8.0660 ca         1 AHK      -0.075200
     23 C16          8.0670     2.3900    -7.4560 ca         1 AHK       0.083400
     24 N1           7.6720     2.1930    -6.1720 nd         1 AHK      -0.589100
     25 C20          7.2310     3.5630    -9.3970 ca         1 AHK      -0.131000
     26 C19          8.3330     3.1400   -10.1090 ca         1 AHK      -0.086000
     27 C18          9.2990     2.3470    -9.5060 ca         1 AHK      -0.132000
     28 C17          9.1750     1.9730    -8.1980 ca         1 AHK      -0.062000
     29 H1           2.4030     1.9520     3.0760 ha         1 AHK       0.129000
     30 H2           1.1760     1.9520     5.2110 ha         1 AHK       0.142000
     31 H3          -0.2160     0.0160     5.8370 ha         1 AHK       0.144000
     32 H4          -0.3910    -1.9240     4.3290 ha         1 AHK       0.145000
     33 H5          -0.1420    -2.7850     2.1120 hc         1 AHK       0.055200
     34 H6           0.8210    -1.9320     0.8980 hc         1 AHK       0.055200
     35 H7           2.4380    -3.4710     1.2400 hc         1 AHK       0.039033
     36 H8           2.6790    -2.7500     2.8380 hc         1 AHK       0.039033
     37 H9           1.5910    -4.1320     2.6460 hc         1 AHK       0.039033
     38 H10          1.8870    -0.0080    -2.1340 ha         1 AHK       0.145000
     39 H11          5.5930    -0.0030    -0.0090 ha         1 AHK       0.139000
     40 H12          4.3760    -0.0030     2.1330 ha         1 AHK       0.168000
     41 H13          5.5070    -0.5220    -2.3750 hx         1 AHK       0.110200
     42 H14          3.9730    -0.5240    -3.2550 hx         1 AHK       0.110200
     43 H15          3.9310     1.8450    -3.0530 hn         1 AHK       0.448800
     44 H17          6.4830     0.8560    -4.0800 hx         1 AHK       0.120700
     45 H18          4.9490     0.8530    -4.9600 hx         1 AHK       0.120700
     46 H19          6.3780     3.3210    -3.9060 hc         1 AHK       0.072700
     47 H20          4.8440     3.3170    -4.7860 hc         1 AHK       0.072700
     48 H21          5.3730     4.0800    -7.1710 hn         1 AHK       0.307700
     49 H23          6.4810     4.1820    -9.8730 ha         1 AHK       0.138000
     50 H24          8.4460     3.4290   -11.1470 ha         1 AHK       0.149000
     51 H25         10.1600     2.0220   -10.0780 ha         1 AHK       0.149000
     52 H26          9.9340     1.3530    -7.7370 ha         1 AHK       0.149000
     53 H16          5.3490     1.8470    -2.2400 hn         1 AHK       0.448800
@<TRIPOS>BOND
     1    28    27 ar
     2    28    23 ar
     3    27    26 ar
     4    24    23 1
     5    24    20 2
     6    23    22 ar
     7    26    25 ar
     8    20    19 1
     9    20    21 1
    10    22    25 ar
    11    22    21 1
    12    19    18 1
    13     6     5 ar
    14     6     7 ar
    15     5     4 ar
    16    18    17 1
    17    17    16 1
    18    14    15 ar
    19    14    13 ar
    20    15     3 ar
    21     7     8 ar
    22    16    13 1
    23     4     3 1
    24     4     9 ar
    25    13    12 ar
    26     3     2 ar
    27     2    12 ar
    28     2     1 1
    29     8     9 ar
    30     9    10 1
    31    10    11 1
    32     5    29 1
    33     6    30 1
    34     7    31 1
    35     8    32 1
    36    10    33 1
    37    10    34 1
    38    11    35 1
    39    11    36 1
    40    11    37 1
    41    12    38 1
    42    14    39 1
    43    15    40 1
    44    16    41 1
    45    16    42 1
    46    17    43 1
    47    18    44 1
    48    18    45 1
    49    19    46 1
    50    19    47 1
    51    21    48 1
    52    25    49 1
    53    26    50 1
    54    27    51 1
    55    28    52 1
    56    17    53 1
@<TRIPOS>SUBSTRUCTURE
     1 AHK         1 TEMP              0 ****  ****    0 ROOT
