@<TRIPOS>MOLECULE
AHK
   53    56     1     0     0
SMALL
bcc


@<TRIPOS>ATOM
      1 Cl           0.0000     0.0000     0.0000 cl         1 AHK       0.054600
      2 C23          1.7360     0.0000     0.0000 ca         1 AHK      -0.046600
      3 C8           2.4340     0.0000     1.2060 cp         1 AHK       0.057000
      4 C7           1.6970     0.0050     2.4930 cp         1 AHK      -0.095000
      5 C6           1.7910     1.1010     3.3500 ca         1 AHK      -0.075000
      6 C5           1.1030     1.1000     4.5450 ca         1 AHK      -0.100000
      7 C4           0.3210     0.0140     4.8960 ca         1 AHK      -0.068000
      8 C3           0.2240    -1.0770     4.0510 ca         1 AHK      -0.090000
      9 C2           0.9040    -1.0840     2.8490 ca         1 AHK      -0.052300
     10 C1           0.7930    -2.2700     1.9270 c3         1 AHK      -0.003100
     11 C            1.9610    -3.2260     2.1810 c3         1 AHK       0.006900
     12 C22          2.4290    -0.0040    -1.1950 ca         1 AHK      -0.072000
     13 C11          3.8110    -0.0050    -1.1960 ca         1 AHK      -0.211300
     14 C10          4.5090    -0.0000    -0.0020 ca         1 AHK      -0.071000
     15 C9           3.8280    -0.0050     1.1990 ca         1 AHK      -0.070000
     16 C12          4.5610    -0.0110    -2.5040 c3         1 AHK       0.055100
     17 N            4.8060     1.3730    -2.9340 ny         1 AHK       0.023000
     18 C13          5.5370     1.3670    -4.2090 c3         1 AHK      -0.038200
     19 C14          5.7900     2.8070    -4.6570 c3         1 AHK       0.000300
     20 C15          6.5400     2.8020    -5.9640 cc         1 AHK       0.139800
     21 N2           6.1370     3.4370    -7.0970 na         1 AHK       0.290700
     22 C21          7.0890     3.1930    -8.0660 ca         1 AHK      -0.261200
     23 C16          8.0670     2.3900    -7.4560 ca         1 AHK       0.057400
     24 N1           7.6720     2.1930    -6.1720 nd         1 AHK      -0.499100
     25 C20          7.2310     3.5630    -9.3970 ca         1 AHK      -0.089000
     26 C19          8.3330     3.1400   -10.1090 ca         1 AHK      -0.059000
     27 C18          9.2990     2.3470    -9.5060 ca         1 AHK      -0.100000
     28 C17          9.1750     1.9730    -8.1980 ca         1 AHK      -0.033000
     29 H1           2.4030     1.9520     3.0760 ha         1 AHK       0.103000
     30 H2           1.1760     1.9520     5.2110 ha         1 AHK       0.113000
     31 H3          -0.2160     0.0160     5.8370 ha         1 AHK       0.112000
     32 H4          -0.3910    -1.9240     4.3290 ha         1 AHK       0.118000
     33 H5          -0.1420    -2.7850     2.1120 hc         1 AHK       0.026700
     34 H6           0.8210    -1.9320     0.8980 hc         1 AHK       0.026700
     35 H7           2.4380    -3.4710     1.2400 hc         1 AHK       0.006033
     36 H8           2.6790    -2.7500     2.8380 hc         1 AHK       0.006033
     37 H9           1.5910    -4.1320     2.6460 hc         1 AHK       0.006033
     38 H10          1.8870    -0.0080    -2.1340 ha         1 AHK       0.116000
     39 H11          5.5930    -0.0030    -0.0090 ha         1 AHK       0.110000
     40 H12          4.3760    -0.0030     2.1330 ha         1 AHK       0.134000
     41 H13          5.5070    -0.5220    -2.3750 hx         1 AHK       0.080200
     42 H14          3.9730    -0.5240    -3.2550 hx         1 AHK       0.080200
     43 H15          3.9310     1.8450    -3.0530 hn         1 AHK       0.242300
     44 H17          6.4830     0.8560    -4.0800 hx         1 AHK       0.091700
     45 H18          4.9490     0.8530    -4.9600 hx         1 AHK       0.091700
     46 H19          6.3780     3.3210    -3.9060 hc         1 AHK       0.030200
     47 H20          4.8440     3.3170    -4.7860 hc         1 AHK       0.030200
     48 H21          5.3730     4.0800    -7.1710 hn         1 AHK       0.128700
     49 H23          6.4810     4.1820    -9.8730 ha         1 AHK       0.109000
     50 H24          8.4460     3.4290   -11.1470 ha         1 AHK       0.114000
     51 H25         10.1600     2.0220   -10.0780 ha         1 AHK       0.117000
     52 H26          9.9340     1.3530    -7.7370 ha         1 AHK       0.115000
     53 H16          5.3490     1.8470    -2.2400 hn         1 AHK       0.242300
@<TRIPOS>BOND
     1     1     2 1   
     2     2     3 ar  
     3     2    12 ar  
     4     3     4 1   
     5     3    15 ar  
     6     4     5 ar  
     7     4     9 ar  
     8     5     6 ar  
     9     5    29 1   
    10     6     7 ar  
    11     6    30 1   
    12     7     8 ar  
    13     7    31 1   
    14     8     9 ar  
    15     8    32 1   
    16     9    10 1   
    17    10    11 1   
    18    10    33 1   
    19    10    34 1   
    20    11    35 1   
    21    11    36 1   
    22    11    37 1   
    23    12    13 ar  
    24    12    38 1   
    25    13    14 ar  
    26    13    16 1   
    27    14    15 ar  
    28    14    39 1   
    29    15    40 1   
    30    16    17 1   
    31    16    41 1   
    32    16    42 1   
    33    17    18 1   
    34    17    43 1   
    35    17    53 1   
    36    18    19 1   
    37    18    44 1   
    38    18    45 1   
    39    19    20 1   
    40    19    46 1   
    41    19    47 1   
    42    20    21 1   
    43    20    24 2   
    44    21    22 1   
    45    21    48 1   
    46    22    23 ar  
    47    22    25 ar  
    48    23    24 1   
    49    23    28 ar  
    50    25    26 ar  
    51    25    49 1   
    52    26    27 ar  
    53    26    50 1   
    54    27    28 ar  
    55    27    51 1   
    56    28    52 1   
@<TRIPOS>SUBSTRUCTURE
     1 AHK         1 TEMP              0 ****  ****    0 ROOT
