@<TRIPOS>MOLECULE
AHL
   30    29     1     0     0
SMALL
bcc


@<TRIPOS>ATOM
      1 N1           0.0000     0.0000     0.0000 nz         1 AHL       0.093400
      2 CA           1.4690     0.0000     0.0000 c3         1 AHL      -0.154500
      3 CB           1.9780     0.0000     1.4430 c3         1 AHL      -0.028400
      4 CG           1.5730     1.3070     2.1280 c3         1 AHL      -0.040400
      5 CD           2.0830     1.3060     3.5700 c3         1 AHL       0.159800
      6 NE           1.6960     2.5590     4.2250 nu         1 AHL      -0.523200
      7 CZ           2.0460     2.7850     5.5350 c2         1 AHL       0.241100
      8 NH1          2.7600     1.8380     6.2300 nz         1 AHL       0.192400
      9 NH2          1.7020     3.9000     6.1170 n2         1 AHL      -0.544100
     10 C            1.9710    -1.2310    -0.7100 c          1 AHL       0.533100
     11 O1           1.2420    -2.1900    -0.8500 o          1 AHL      -0.587100
     12 N2           3.2300    -1.2650    -1.1900 ns         1 AHL       0.040600
     13 O2           3.7020    -2.4210    -1.8580 oh         1 AHL      -0.404100
     14 HN11        -0.3340    -0.5870     0.7380 hn         1 AHL       0.235133
     15 HN12        -0.3340    -0.3460    -0.8780 hn         1 AHL       0.235133
     16 HA           1.8300     0.8840    -0.5110 hx         1 AHL       0.095700
     17 HB1          1.5470    -0.8370     1.9780 hc         1 AHL       0.059700
     18 HB2          3.0580    -0.0890     1.4440 hc         1 AHL       0.059700
     19 HG1          2.0050     2.1440     1.5920 hc         1 AHL       0.029700
     20 HG2          0.4930     1.3950     2.1270 hc         1 AHL       0.029700
     21 HD1          3.1630     1.2170     3.5710 h1         1 AHL       0.022200
     22 HD2          1.6520     0.4690     4.1050 h1         1 AHL       0.022200
     23 HNE          1.1680     3.2450     3.7230 hn         1 AHL       0.342800
     24 HH11         2.2380     0.9850     6.2650 hn         1 AHL       0.228800
     25 HH12         2.9270     2.1650     7.1610 hn         1 AHL       0.228800
     26 HNH2         1.1820     4.5900     5.6130 hn         1 AHL       0.381400
     27 HN2          3.8170    -0.4580    -1.1110 hn         1 AHL       0.157500
     28 HO2          4.6070    -2.2990    -2.0950 ho         1 AHL       0.427000
     29 H13         -0.3340     0.9320     0.1470 hn         1 AHL       0.235133
     30 HH13         3.6340     1.6740     5.7710 hn         1 AHL       0.228800
@<TRIPOS>BOND
     1     1     2 1   
     2     1    14 1   
     3     1    15 1   
     4     1    29 1   
     5     2     3 1   
     6     2    10 1   
     7     2    16 1   
     8     3     4 1   
     9     3    17 1   
    10     3    18 1   
    11     4     5 1   
    12     4    19 1   
    13     4    20 1   
    14     5     6 1   
    15     5    21 1   
    16     5    22 1   
    17     6     7 1   
    18     6    23 1   
    19     7     8 1   
    20     7     9 2   
    21     8    24 1   
    22     8    25 1   
    23     8    30 1   
    24     9    26 1   
    25    10    11 2   
    26    10    12 1   
    27    12    13 1   
    28    12    27 1   
    29    13    28 1   
@<TRIPOS>SUBSTRUCTURE
     1 AHL         1 TEMP              0 ****  ****    0 ROOT
