@<TRIPOS>MOLECULE
molecule
   30    29     1     0     0
SMALL
bcc


@<TRIPOS>ATOM
      1 N1           0.0000     0.0000     0.0000 nz         1 AHL      -0.796600
      2 CA           1.4690     0.0000     0.0000 c3         1 AHL       0.032500
      3 CB           1.9780     0.0000     1.4430 c3         1 AHL      -0.105400
      4 CG           1.5730     1.3070     2.1280 c3         1 AHL      -0.107400
      5 CD           2.0830     1.3060     3.5700 c3         1 AHL       0.219800
      6 NE           1.6960     2.5590     4.2250 nu         1 AHL      -0.876200
      7 CZ           2.0460     2.7850     5.5350 c2         1 AHL       0.691100
      8 NH1          2.7600     1.8380     6.2300 nz         1 AHL      -0.805600
      9 NH2          1.7020     3.9000     6.1170 n2         1 AHL      -0.740100
     10 C            1.9710    -1.2310    -0.7100 c          1 AHL       0.646100
     11 O1           1.2420    -2.1900    -0.8500 o          1 AHL      -0.537100
     12 N2           3.2300    -1.2650    -1.1900 ns         1 AHL      -0.429400
     13 O2           3.7020    -2.4210    -1.8580 oh         1 AHL      -0.315100
     14 HN11        -0.3340    -0.2210    -0.9170 hn         1 AHL       0.470800
     15 HN12        -0.3340     0.9050     0.2680 hn         1 AHL       0.470800
     16 HA           1.8300     0.8840    -0.5110 hx         1 AHL       0.125700
     17 HB1          1.5470    -0.8370     1.9780 hc         1 AHL       0.097700
     18 HB2          3.0580    -0.0890     1.4440 hc         1 AHL       0.097700
     19 HG1          0.4930     1.3950     2.1270 hc         1 AHL       0.065700
     20 HG2          2.0050     2.1440     1.5920 hc         1 AHL       0.065700
     21 HD1          3.1630     1.2170     3.5710 h1         1 AHL       0.050200
     22 HD2          1.6520     0.4690     4.1050 h1         1 AHL       0.050200
     23 HNE          1.1870     3.2540     3.7170 hn         1 AHL       0.510800
     24 HH11         3.6350     1.6750     5.7720 hn         1 AHL       0.472133
     25 HH12         2.2380     0.9850     6.2660 hn         1 AHL       0.472133
     26 HNH2         1.9560     4.0680     7.0710 hn         1 AHL       0.459400
     27 HN2          3.8260    -0.4670    -1.0890 hn         1 AHL       0.334500
     28 HO2          4.5040    -2.2170    -2.3100 ho         1 AHL       0.435000
     29 H13         -0.3340    -0.6930     0.6400 hn         1 AHL       0.470800
     30 HH13         2.9380     2.1680     7.1580 hn         1 AHL       0.472133
@<TRIPOS>BOND
     1     1     2 1
     2     1    14 1
     3     1    15 1
     4     2     3 1
     5     2    10 1
     6     2    16 1
     7     3     4 1
     8     3    17 1
     9     3    18 1
    10     4     5 1
    11     4    19 1
    12     4    20 1
    13     5     6 1
    14     5    21 1
    15     5    22 1
    16     6     7 1
    17     6    23 1
    18     7     8 1
    19     7     9 2
    20     8    24 1
    21     8    25 1
    22     9    26 1
    23    10    11 2
    24    10    12 1
    25    12    13 1
    26    12    27 1
    27    13    28 1
    28    29     1 1
    29    30     8 1
@<TRIPOS>SUBSTRUCTURE
     1 AHL         1 TEMP              0 ****  ****    0 ROOT
