@<TRIPOS>MOLECULE
molecule
   29    29     1     0     0
SMALL
bcc


@<TRIPOS>ATOM
      1 P1           0.0000     0.0000     0.0000 p5         1 AHM       1.188400
      2 O1P          1.4800     0.0000     0.0000 o          1 AHM      -0.931167
      3 O2P         -0.5350     0.0000     1.5180 o          1 AHM      -0.931167
      4 O3P         -0.5350    -1.3150    -0.7600 o          1 AHM      -0.931167
      5 O1          -0.5360     1.3150    -0.7590 os         1 AHM      -0.517200
      6 C1          -0.0280     1.2570    -2.0930 c3         1 AHM       0.160400
      7 C2          -0.5040     2.4840    -2.8720 c3         1 AHM       0.132100
      8 C3           0.0900     2.4810    -4.3040 c3         1 AHM       0.073600
      9 O3          -0.7290     1.7280    -5.2000 oh         1 AHM      -0.615300
     10 C4           0.0490     3.9940    -4.6450 c3         1 AHM       0.073600
     11 O4           1.0690     4.3320    -5.5850 oh         1 AHM      -0.615300
     12 C5           0.3220     4.6470    -3.2730 c3         1 AHM       0.132100
     13 O5          -0.0070     3.6850    -2.2620 os         1 AHM      -0.335600
     14 C6          -0.5500     5.8930    -3.1080 c3         1 AHM       0.160400
     15 O6          -0.2920     6.4910    -1.8370 os         1 AHM      -0.517200
     16 P2          -1.2360     7.7900    -1.7320 p5         1 AHM       1.188400
     17 O4P         -2.6540     7.3770    -1.8390 o          1 AHM      -0.931167
     18 O5P         -0.9970     8.5150    -0.3150 o          1 AHM      -0.931167
     19 O6P         -0.8830     8.8100    -2.9250 o          1 AHM      -0.931167
     20 H11         -0.3900     0.3590    -2.5780 h1         1 AHM       0.031200
     21 H12          1.0540     1.2430    -2.0670 h1         1 AHM       0.031200
     22 H2          -1.5860     2.5100    -2.9180 h1         1 AHM       0.055700
     23 H3           1.1100     2.1150    -4.2970 h1         1 AHM       0.052200
     24 HO3         -0.1820     1.2180    -5.7740 ho         1 AHM       0.370000
     25 H4          -0.9310     4.2750    -5.0130 h1         1 AHM       0.052200
     26 HO4          0.6730     4.5780    -6.4050 ho         1 AHM       0.370000
     27 H5           1.3690     4.9130    -3.1970 h1         1 AHM       0.055700
     28 H61         -0.3180     6.6020    -3.8940 h1         1 AHM       0.031200
     29 H62         -1.5950     5.6140    -3.1700 h1         1 AHM       0.031200
@<TRIPOS>BOND
     1     1     2 1
     2     1     3 1
     3     1     4 1
     4     1     5 1
     5     5     6 1
     6     6     7 1
     7     6    20 1
     8     6    21 1
     9     7     8 1
    10     7    13 1
    11     7    22 1
    12     8     9 1
    13     8    10 1
    14     8    23 1
    15     9    24 1
    16    10    11 1
    17    10    12 1
    18    10    25 1
    19    11    26 1
    20    12    13 1
    21    12    14 1
    22    12    27 1
    23    14    15 1
    24    14    28 1
    25    14    29 1
    26    15    16 1
    27    16    17 1
    28    16    18 1
    29    16    19 1
@<TRIPOS>SUBSTRUCTURE
     1 AHM         1 TEMP              0 ****  ****    0 ROOT
