@<TRIPOS>MOLECULE
AHM
   29    29     1     0     0
SMALL
bcc


@<TRIPOS>ATOM
      1 P1          0.2210   -1.1120   -1.6490 p5        1 AHM      1.329900
      2 O1P         1.6790   -1.2820   -1.2980 o         1 AHM     -0.946833
      3 O2P        -0.7060   -2.0930   -0.9760 o         1 AHM     -0.946833
      4 O3P        -0.0590   -0.8340   -3.1090 o         1 AHM     -0.946833
      5 O1         -0.2020    0.3960   -0.9330 os        1 AHM     -0.582200
      6 C1          0.5040    1.4880   -1.3880 c3        1 AHM      0.222400
      7 C2         -0.4010    2.4730   -2.1600 c3        1 AHM      0.071100
      8 C3         -0.0350    2.6130   -3.6540 c3        1 AHM      0.133100
      9 O3         -0.8170    1.7630   -4.4660 oh        1 AHM     -0.662800
     10 C4         -0.3420    4.0960   -3.9620 c3        1 AHM      0.133100
     11 O4          0.5510    4.5980   -4.9340 oh        1 AHM     -0.662800
     12 C5         -0.1530    4.7930   -2.5970 c3        1 AHM      0.071100
     13 O5         -0.3270    3.7890   -1.5770 os        1 AHM     -0.450600
     14 C6         -1.1210    5.9730   -2.3630 c3        1 AHM      0.222400
     15 O6         -0.4490    7.1730   -2.2680 os        1 AHM     -0.582200
     16 P2         -0.7490    8.2930   -3.5410 p5        1 AHM      1.329900
     17 O4P        -2.2330    8.5480   -3.4560 o         1 AHM     -0.946833
     18 O5P         0.1150    9.4760   -3.1780 o         1 AHM     -0.946833
     19 O6P        -0.3030    7.4960   -4.7460 o         1 AHM     -0.946833
     20 H11         0.9340    2.0470   -0.5050 h1        1 AHM     -0.005300
     21 H12         1.3530    1.1570   -2.0510 h1        1 AHM     -0.005300
     22 H2         -1.4700    2.1360   -2.0660 h1        1 AHM      0.050700
     23 H3          1.0540    2.4000   -3.8290 h1        1 AHM      0.035700
     24 HO3        -0.6650    0.8550   -4.1240 ho        1 AHM      0.477000
     25 H4         -1.3970    4.2020   -4.3330 h1        1 AHM      0.035700
     26 HO4         0.3810    5.5650   -4.9760 ho        1 AHM      0.477000
     27 H5          0.9040    5.1650   -2.5080 h1        1 AHM      0.050700
     28 H61        -1.8760    6.0130   -3.1980 h1        1 AHM     -0.005300
     29 H62        -1.6670    5.7760   -1.3930 h1        1 AHM     -0.005300
@<TRIPOS>BOND
     1    1    2 1   
     2    1    3 1   
     3    1    4 1   
     4    1    5 1   
     5    5    6 1   
     6    6    7 1   
     7    6   20 1   
     8    6   21 1   
     9    7    8 1   
    10    7   13 1   
    11    7   22 1   
    12    8    9 1   
    13    8   10 1   
    14    8   23 1   
    15    9   24 1   
    16   10   11 1   
    17   10   12 1   
    18   10   25 1   
    19   11   26 1   
    20   12   13 1   
    21   12   14 1   
    22   12   27 1   
    23   14   15 1   
    24   14   28 1   
    25   14   29 1   
    26   15   16 1   
    27   16   17 1   
    28   16   18 1   
    29   16   19 1   
@<TRIPOS>SUBSTRUCTURE
     1 AHM         1 TEMP              0 ****  ****    0 ROOT
