@<TRIPOS>MOLECULE
molecule
   22    22     1     0     0
SMALL
bcc


@<TRIPOS>ATOM
      1 C            0.0000     0.0000     0.0000 c          1 AHN       0.655100
      2 O            1.2130     0.0000     0.0000 o          1 AHN      -0.607100
      3 CT          -0.7530     0.0000     1.3050 c3         1 AHN      -0.172100
      4 N           -0.6730     0.0000    -1.1670 ns         1 AHN      -0.593900
      5 CA           0.0580    -0.0000    -2.4360 c3         1 AHN       0.114000
      6 CB          -0.9360    -0.0000    -3.5990 c3         1 AHN      -0.106700
      7 CG          -0.1830    -0.0000    -4.9040 cc         1 AHN       0.316600
      8 CD2         -0.3270    -0.8930    -5.9020 cd         1 AHN      -0.269600
      9 ND1          0.7470     0.8930    -5.2770 nc         1 AHN      -0.692000
     10 CE1          1.1880     0.5820    -6.4660 cd         1 AHN       0.398400
     11 NE2          0.5410    -0.5240    -6.8930 na         1 AHN      -0.297900
     12 HT1         -1.3760    -0.8840     1.3630 hc         1 AHN       0.058700
     13 HT2         -0.0490    -0.0000     2.1280 hc         1 AHN       0.058700
     14 HT3         -1.3760     0.8850     1.3630 hc         1 AHN       0.058700
     15 HN          -1.6740     0.0000    -1.1670 hn         1 AHN       0.307500
     16 HA1          0.6810     0.8840    -2.4940 h1         1 AHN       0.064700
     17 HA2          0.6810    -0.8850    -2.4930 h1         1 AHN       0.064700
     18 HB1         -1.5580     0.8840    -3.5410 hc         1 AHN       0.050200
     19 HB2         -1.5580    -0.8850    -3.5410 hc         1 AHN       0.050200
     20 HD2         -1.0020    -1.7410    -5.9180 h4         1 AHN       0.174000
     21 HE1          1.9440     1.1250    -7.0210 h5         1 AHN       0.066100
     22 HE2          0.6740    -0.9890    -7.7690 hn         1 AHN       0.299700
@<TRIPOS>BOND
     1     1     2 2
     2     1     3 1
     3     1     4 1
     4     3    12 1
     5     3    13 1
     6     3    14 1
     7     4     5 1
     8     4    15 1
     9     5     6 1
    10     5    16 1
    11     5    17 1
    12     6     7 1
    13     6    18 1
    14     6    19 1
    15     7     8 2
    16     7     9 1
    17     8    11 1
    18     8    20 1
    19     9    10 2
    20    10    11 1
    21    10    21 1
    22    11    22 1
@<TRIPOS>SUBSTRUCTURE
     1 AHN         1 TEMP              0 ****  ****    0 ROOT
