@<TRIPOS>MOLECULE
AHQ
   35    37     1     0     0
SMALL
bcc


@<TRIPOS>ATOM
      1 O5           0.0000     0.0000     0.0000 oh         1 AHQ      -0.492100
      2 C5           1.3620     0.0000     0.0000 ca         1 AHQ      -0.047900
      3 C4           2.0530     0.0000     1.2020 ca         1 AHQ       0.099100
      4 O4           1.3720    -0.0030     2.3790 oh         1 AHQ      -0.504100
      5 C3A          3.4370     0.0010     1.2030 ca         1 AHQ      -0.234300
      6 C3           4.4430    -0.0040     2.3370 c3         1 AHQ       0.043900
      7 C2           5.7540    -0.4220     1.6310 c3         1 AHQ       0.001500
      8 C2X          5.9460    -1.9150     1.7010 c          1 AHQ       0.991600
      9 O2B          6.4270    -2.4780     2.8200 o          1 AHQ      -0.905300
     10 O2A          5.6670    -2.6050     0.7490 o          1 AHQ      -0.905300
     11 N1           5.5230     0.0130     0.2370 nu         1 AHQ      -0.341600
     12 C1A          4.1390     0.0020     0.0060 ca         1 AHQ       0.107600
     13 C9A          3.4410    -0.0040    -1.2050 ca         1 AHQ      -0.062300
     14 C6A          2.0590    -0.0050    -1.2120 ca         1 AHQ       0.032600
     15 N6           1.3070     0.0040    -2.3890 nu         1 AHQ      -0.353600
     16 C7           2.0580    -0.4640    -3.5560 c3         1 AHQ      -0.005500
     17 C7X          1.2330    -0.2640    -4.8010 c          1 AHQ       0.991600
     18 O7B          1.5180    -0.9600    -5.9130 o          1 AHQ      -0.921800
     19 O7A          0.3160     0.5220    -4.7990 o          1 AHQ      -0.921800
     20 C8           3.3560     0.3480    -3.6620 c3         1 AHQ      -0.002400
     21 C9           4.2480    -0.0230    -2.4790 c3         1 AHQ      -0.097400
     22 C9X          5.3850     0.9600    -2.3670 c          1 AHQ       0.999600
     23 O9B          5.1560     2.1270    -2.1550 o          1 AHQ      -0.919800
     24 O9A          6.6520     0.5380    -2.5020 o          1 AHQ      -0.919800
     25 HO5         -0.3140     0.8680     0.1910 ho         1 AHQ       0.359000
     26 HO4          1.2020     0.8850     2.6460 ho         1 AHQ       0.357000
     27 H3           4.5400     0.9860     2.7660 hc         1 AHQ       0.000200
     28 H3A          4.1660    -0.7310     3.0900 hc         1 AHQ       0.000200
     29 H2           6.6000     0.1010     2.0590 h1         1 AHQ       0.009700
     30 HN1          5.8740     0.9420     0.1150 hn         1 AHQ       0.270800
     31 HN6          0.4910    -0.5630    -2.2680 hn         1 AHQ       0.249800
     32 H7           2.2960    -1.5140    -3.4360 h1         1 AHQ       0.014700
     33 H8           3.8610     0.1060    -4.5890 hc         1 AHQ       0.026700
     34 H8A          3.1270     1.4060    -3.6280 hc         1 AHQ       0.026700
     35 H9           4.6460    -1.0190    -2.6330 hc         1 AHQ       0.051700
@<TRIPOS>BOND
     1     1     2 1   
     2     1    25 1   
     3     2     3 ar  
     4     2    14 ar  
     5     3     4 1   
     6     3     5 ar  
     7     4    26 1   
     8     5     6 1   
     9     5    12 ar  
    10     6     7 1   
    11     6    27 1   
    12     6    28 1   
    13     7     8 1   
    14     7    11 1   
    15     7    29 1   
    16     8     9 1   
    17     8    10 1   
    18    11    12 1   
    19    11    30 1   
    20    12    13 ar  
    21    13    14 ar  
    22    13    21 1   
    23    14    15 1   
    24    15    16 1   
    25    15    31 1   
    26    16    17 1   
    27    16    20 1   
    28    16    32 1   
    29    17    18 1   
    30    17    19 1   
    31    20    21 1   
    32    20    33 1   
    33    20    34 1   
    34    21    22 1   
    35    21    35 1   
    36    22    23 1   
    37    22    24 1   
@<TRIPOS>SUBSTRUCTURE
     1 AHQ         1 TEMP              0 ****  ****    0 ROOT
