@<TRIPOS>MOLECULE
molecule
   31    32     1     0     0
SMALL
bcc


@<TRIPOS>ATOM
      1 C4'          0.0000     0.0000     0.0000 c3         1 AHU       0.134100
      2 C7'         -0.5080    -0.1930    -1.4290 c3         1 AHU       0.148400
      3 O7'         -0.0300    -1.4390    -1.9410 oh         1 AHU      -0.602800
      4 O5'          1.4260     0.0000     0.0000 os         1 AHU      -0.392600
      5 C6'          1.8590     0.0000     1.3590 c3         1 AHU       0.102400
      6 C1'          1.4930     1.3300     2.0190 c3         1 AHU       0.087700
      7 C2'         -0.0310     1.4990     1.9930 c3         1 AHU      -0.126400
      8 C3'         -0.5160     1.3300     0.5490 c3         1 AHU       0.115100
      9 O3'         -1.9450     1.3380     0.5210 oh         1 AHU      -0.599800
     10 N1           2.1230     2.4310     1.2850 n          1 AHU      -0.359000
     11 C6           2.8510     2.1640     0.1590 cc         1 AHU       0.076600
     12 C2           1.9730     3.6950     1.7220 c          1 AHU       0.806500
     13 O2           1.3200     3.9090     2.7250 o          1 AHU      -0.655500
     14 N3           2.5450     4.7230     1.0710 ns         1 AHU      -0.556500
     15 C4           3.2710     4.5040    -0.0430 c          1 AHU       0.710700
     16 O4           3.7850     5.4350    -0.6360 o          1 AHU      -0.604500
     17 C5           3.4320     3.1790    -0.5180 cd         1 AHU      -0.181400
     18 I            4.5530     2.8000    -2.2450 i          1 AHU      -0.083800
     19 H4'         -0.3580    -0.8080     0.6260 h1         1 AHU       0.067700
     20 H7'1        -1.5920    -0.1950    -1.4290 h1         1 AHU       0.038700
     21 H7'2        -0.1480     0.6160    -2.0520 h1         1 AHU       0.038700
     22 HO'7        -0.3910    -1.5850    -2.8000 ho         1 AHU       0.406000
     23 H6'1         1.3720    -0.8090     1.8900 h1         1 AHU       0.070200
     24 H6'2         2.9330    -0.1340     1.3930 h1         1 AHU       0.070200
     25 H1'          1.8380     1.3290     3.0460 h1         1 AHU       0.089700
     26 H2'1        -0.2930     2.4870     2.3510 hc         1 AHU       0.083200
     27 H2'2        -0.4900     0.7450     2.6210 hc         1 AHU       0.083200
     28 H3'         -0.1330     2.1430    -0.0570 h1         1 AHU       0.046700
     29 HO'3        -2.2510     2.2120     0.3470 ho         1 AHU       0.412000
     30 H6           2.9620     1.1440    -0.1890 h4         1 AHU       0.207000
     31 HN3          2.4240     5.6570     1.4100 hn         1 AHU       0.366500
@<TRIPOS>BOND
     1     1     2 1
     2     1     4 1
     3     1     8 1
     4     1    19 1
     5     2     3 1
     6     2    20 1
     7     2    21 1
     8     3    22 1
     9     4     5 1
    10     5     6 1
    11     5    23 1
    12     5    24 1
    13     6     7 1
    14     6    10 1
    15     6    25 1
    16     7     8 1
    17     7    26 1
    18     7    27 1
    19     8     9 1
    20     8    28 1
    21     9    29 1
    22    10    11 1
    23    10    12 1
    24    11    17 2
    25    11    30 1
    26    12    13 2
    27    12    14 1
    28    14    15 1
    29    14    31 1
    30    15    16 2
    31    15    17 1
    32    17    18 1
@<TRIPOS>SUBSTRUCTURE
     1 AHU         1 TEMP              0 ****  ****    0 ROOT
