@<TRIPOS>MOLECULE
molecule
   28    29     1     0     0
SMALL
bcc


@<TRIPOS>ATOM
      1 C1           0.0000     0.0000     0.0000 c3         1 AHW      -0.089100
      2 C10          2.2630    -1.2130     2.0680 ca         1 AHW      -0.133000
      3 C7           1.5310     0.0000     0.0000 c3         1 AHW      -0.041100
      4 C9           2.0330     0.0000     1.4210 ca         1 AHW      -0.067300
      5 C11          2.7110    -1.2470     3.3530 ca         1 AHW      -0.103000
      6 C12          2.9460    -0.0450     4.0400 ca         1 AHW      -0.072000
      7 C13          2.7140     1.1890     3.3820 ca         1 AHW       0.004000
      8 C14          2.2560     1.1850     2.0530 ca         1 AHW      -0.126000
      9 C15          2.9490     2.3920     4.0670 ca         1 AHW      -0.163000
     10 C16          3.3970     2.3570     5.3560 ca         1 AHW       0.140100
     11 C17          3.6280     1.1390     6.0040 ca         1 AHW      -0.205000
     12 C20          3.4100    -0.0430     5.3680 ca         1 AHW      -0.078000
     13 C22          4.0950     3.4210     7.3650 c3         1 AHW       0.128700
     14 O21          3.6250     3.5220     6.0190 os         1 AHW      -0.330900
     15 H1          -0.3610     0.5280     0.8740 hc         1 AHW       0.037033
     16 H2          -0.3610     0.4930    -0.8950 hc         1 AHW       0.037033
     17 H3          -0.3610    -1.0210     0.0200 hc         1 AHW       0.037033
     18 H4           2.0850    -2.1410     1.5400 ha         1 AHW       0.129000
     19 H5           1.8920     0.8840    -0.5110 hc         1 AHW       0.047700
     20 H6           1.8920    -0.8850    -0.5110 hc         1 AHW       0.047700
     21 H7           2.8850    -2.1980     3.8430 ha         1 AHW       0.130000
     22 H8           2.0730     2.1200     1.5370 ha         1 AHW       0.136000
     23 H9           2.7740     3.3420     3.5760 ha         1 AHW       0.147000
     24 H10          3.9840     1.1370     7.0270 ha         1 AHW       0.133000
     25 H11          3.5920    -0.9790     5.8820 ha         1 AHW       0.133000
     26 H12          4.2400     4.4140     7.7720 h1         1 AHW       0.041033
     27 H13          5.0360     2.8840     7.3800 h1         1 AHW       0.041033
     28 H14          3.3660     2.8880     7.9630 h1         1 AHW       0.041033
@<TRIPOS>BOND
     1    11    12 ar
     2    11    10 ar
     3    13    14 1
     4    12     6 ar
     5    14    10 1
     6    10     9 ar
     7     6     5 ar
     8     6     7 ar
     9     5     2 ar
    10     9     7 ar
    11     7     8 ar
    12     2     4 ar
    13     8     4 ar
    14     4     3 1
    15     3     1 1
    16     1    15 1
    17     1    16 1
    18     1    17 1
    19     2    18 1
    20     3    19 1
    21     3    20 1
    22     5    21 1
    23     8    22 1
    24     9    23 1
    25    11    24 1
    26    12    25 1
    27    13    26 1
    28    13    27 1
    29    13    28 1
@<TRIPOS>SUBSTRUCTURE
     1 AHW         1 TEMP              0 ****  ****    0 ROOT
