@<TRIPOS>MOLECULE
molecule
   50    52     1     0     0
SMALL
bcc


@<TRIPOS>ATOM
      1 N10          0.0000     0.0000     0.0000 nz         1 AHX      -0.790600
      2 CA           1.4690     0.0000     0.0000 c3         1 AHX       0.032500
      3 CB           1.9790     0.0000     1.4430 c3         1 AHX       0.120400
      4 OG           1.5020     1.1650     2.1170 oh         1 AHX      -0.640800
      5 C9           1.9710    -1.2290    -0.7120 c          1 AHX       0.633100
      6 O9           1.3170    -2.2490    -0.6960 o          1 AHX      -0.588100
      7 N8           3.1490    -1.1940    -1.3670 ns         1 AHX      -0.359400
      8 PA           5.0340    -1.9580    -2.7000 p5         1 AHX       1.229800
      9 O1A          6.0620    -1.5040    -1.5460 o          1 AHX      -0.791500
     10 O2A          4.8390    -0.8420    -3.6530 o          1 AHX      -0.791500
     11 O3A          3.6220    -2.3490    -2.0350 os         1 AHX      -0.270500
     12 O5'          5.6320    -3.2310    -3.4810 os         1 AHX      -0.517200
     13 C5'          6.8790    -2.8230    -4.0450 c3         1 AHX       0.156400
     14 C4'          7.5040    -3.9930    -4.8050 c3         1 AHX       0.125100
     15 O4'          6.6420    -4.3910    -5.8840 os         1 AHX      -0.396600
     16 C3'          8.8460    -3.5600    -5.4240 c3         1 AHX       0.087100
     17 O3'          9.9190    -4.3580    -4.9190 oh         1 AHX      -0.574800
     18 C2'          8.6570    -3.8050    -6.9440 c3         1 AHX       0.090100
     19 O2'          9.8380    -4.3650    -7.5210 oh         1 AHX      -0.562800
     20 C1'          7.4920    -4.8270    -6.9660 c3         1 AHX       0.254800
     21 N9           6.7770    -4.7710    -8.2410 na         1 AHX      -0.246000
     22 C8           5.7590    -3.9200    -8.5570 cc         1 AHX       0.436700
     23 N7           5.3550    -4.1450    -9.7740 nd         1 AHX      -0.601100
     24 C5           6.0840    -5.1520   -10.3140 ca         1 AHX      -0.212200
     25 C6           6.0970    -5.8060   -11.5570 ca         1 AHX       0.784200
     26 N6           5.2130    -5.4410   -12.5580 nv         1 AHX      -0.989500
     27 N1           6.9770    -6.7820   -11.7490 nb         1 AHX      -0.841000
     28 C2           7.8230    -7.1370   -10.8000 ca         1 AHX       0.733900
     29 N3           7.8470    -6.5520    -9.6210 nb         1 AHX      -0.781000
     30 C4           7.0080    -5.5610    -9.3380 ca         1 AHX       0.479800
     31 HN11        -0.3340    -0.1670    -0.9290 hn         1 AHX       0.461467
     32 HN12        -0.3340     0.8880     0.3190 hn         1 AHX       0.461467
     33 HA           1.8290     0.8850    -0.5100 hx         1 AHX       0.129700
     34 HB1          1.6190    -0.8850     1.9530 h1         1 AHX       0.081200
     35 HB2          3.0620     0.0010     1.4430 h1         1 AHX       0.081200
     36 HOG          1.8800     1.2070     2.9800 ho         1 AHX       0.449000
     37 HN8          3.6880    -0.3510    -1.3820 hn         1 AHX       0.368500
     38 H5'1         6.7140    -1.9970    -4.7270 h1         1 AHX       0.065200
     39 H5'2         7.5480    -2.5090    -3.2530 h1         1 AHX       0.065200
     40 H4'          7.6630    -4.8300    -4.1360 h1         1 AHX       0.084700
     41 H3'          9.0270    -2.5090    -5.2320 h1         1 AHX       0.053700
     42 HO3'        10.5370    -3.8050    -4.4700 ho         1 AHX       0.404000
     43 H2'          8.3710    -2.8890    -7.4470 h1         1 AHX       0.057700
     44 HO2'        10.3240    -3.6880    -7.9610 ho         1 AHX       0.402000
     45 H1'          7.8640    -5.8270    -6.7750 h2         1 AHX       0.112700
     46 H8           5.3480    -3.1690    -7.8940 h5         1 AHX       0.095800
     47 HN61         5.2730    -5.8720   -13.4590 hn         1 AHX       0.447300
     48 HN62         4.5180    -4.7440   -12.3810 hn         1 AHX       0.447300
     49 H2           8.5190    -7.9440   -10.9950 h5         1 AHX       0.058100
     50 H103        -0.3340    -0.7170     0.6130 hn         1 AHX       0.461467
@<TRIPOS>BOND
     1     1     2 1
     2     1    31 1
     3     1    32 1
     4     2     3 1
     5     2     5 1
     6     2    33 1
     7     3     4 1
     8     3    34 1
     9     3    35 1
    10     4    36 1
    11     5     6 2
    12     5     7 1
    13     7    11 1
    14     7    37 1
    15     8     9 1
    16     8    10 1
    17     8    11 1
    18     8    12 1
    19    12    13 1
    20    13    14 1
    21    13    38 1
    22    13    39 1
    23    14    15 1
    24    14    16 1
    25    14    40 1
    26    15    20 1
    27    16    17 1
    28    16    18 1
    29    16    41 1
    30    17    42 1
    31    18    19 1
    32    18    20 1
    33    18    43 1
    34    19    44 1
    35    20    21 1
    36    20    45 1
    37    21    22 1
    38    21    30 1
    39    22    23 2
    40    22    46 1
    41    23    24 1
    42    24    25 ar
    43    24    30 ar
    44    25    26 1
    45    25    27 ar
    46    26    47 1
    47    26    48 1
    48    27    28 ar
    49    28    29 ar
    50    28    49 1
    51    29    30 ar
    52    50     1 1
@<TRIPOS>SUBSTRUCTURE
     1 AHX         1 TEMP              0 ****  ****    0 ROOT
