@<TRIPOS>MOLECULE
AHY
   35    34     1     0     0
SMALL
bcc


@<TRIPOS>ATOM
      1 C10          0.0000     0.0000     0.0000 c3         1 AHY       0.008900
      2 C9           1.5200     0.0000     0.0000 c3         1 AHY      -0.026400
      3 C8           2.0800     0.0000     1.4230 c3         1 AHY      -0.025400
      4 C7           3.6100    -0.0340     1.4180 c3         1 AHY      -0.021400
      5 C6           4.1670    -0.0750     2.8430 c3         1 AHY      -0.019400
      6 C5           5.6990    -0.1020     2.9010 c3         1 AHY      -0.021400
      7 C4           6.2480    -0.2360     4.3260 c3         1 AHY      -0.053400
      8 C3           7.7840    -0.3210     4.4570 c3         1 AHY      -0.051500
      9 N3           8.4140     0.8350     3.8100 nz         1 AHY       0.050400
     10 C2           8.2740    -0.4750     5.9110 c3         1 AHY       0.067100
     11 OH2          9.6890    -0.5920     5.9580 oh         1 AHY      -0.621800
     12 C1           7.6870    -1.7030     6.5840 c          1 AHY       0.946600
     13 O            6.5270    -1.4290     7.2340 o          1 AHY      -0.835300
     14 OXT          8.1770    -2.8240     6.5390 o          1 AHY      -0.835300
     15 H101        -0.3610    -0.8880     0.5040 hc         1 AHY       0.002033
     16 H102        -0.3610     0.0070    -1.0210 hc         1 AHY       0.002033
     17 H103        -0.3610     0.8810     0.5170 hc         1 AHY       0.002033
     18 H9C1         1.8740     0.8820    -0.5190 hc         1 AHY       0.009200
     19 H9C2         1.8740    -0.8820    -0.5190 hc         1 AHY       0.009200
     20 H8C1         1.7070    -0.8700     1.9500 hc         1 AHY       0.017200
     21 H8C2         1.7470     0.8950     1.9350 hc         1 AHY       0.017200
     22 H7C1         3.9830     0.8500     0.9170 hc         1 AHY       0.009200
     23 H7C2         3.9440    -0.9140     0.8820 hc         1 AHY       0.009200
     24 H6C1         3.8160     0.8000     3.3770 hc         1 AHY       0.025200
     25 H6C2         3.7860    -0.9600     3.3390 hc         1 AHY       0.025200
     26 H5C1         6.0790     0.8140     2.4670 hc         1 AHY      -0.005800
     27 H5C2         6.0540    -0.9400     2.3130 hc         1 AHY      -0.005800
     28 H4C1         5.8230    -1.1290     4.7680 hc         1 AHY       0.072200
     29 H4C2         5.9090     0.6190     4.8980 hc         1 AHY       0.072200
     30 H3           8.1030    -1.2050     3.9170 hx         1 AHY       0.086700
     31 H3N1         7.9480     1.6720     4.0960 hn         1 AHY       0.216133
     32 H3N2         9.3780     0.8820     4.0760 hn         1 AHY       0.216133
     33 H2O          9.9960    -0.3520     6.8170 ho         1 AHY       0.424000
     34 H2           7.9790     0.4040     6.4720 h1         1 AHY       0.017700
     35 H33          8.3460     0.7390     2.8160 hn         1 AHY       0.216133
@<TRIPOS>BOND
     1     1     2 1   
     2     1    15 1   
     3     1    16 1   
     4     1    17 1   
     5     2     3 1   
     6     2    18 1   
     7     2    19 1   
     8     3     4 1   
     9     3    20 1   
    10     3    21 1   
    11     4     5 1   
    12     4    22 1   
    13     4    23 1   
    14     5     6 1   
    15     5    24 1   
    16     5    25 1   
    17     6     7 1   
    18     6    26 1   
    19     6    27 1   
    20     7     8 1   
    21     7    28 1   
    22     7    29 1   
    23     8     9 1   
    24     8    10 1   
    25     8    30 1   
    26     9    31 1   
    27     9    32 1   
    28     9    35 1   
    29    10    11 1   
    30    10    12 1   
    31    10    34 1   
    32    11    33 1   
    33    12    13 1   
    34    12    14 1   
@<TRIPOS>SUBSTRUCTURE
     1 AHY         1 TEMP              0 ****  ****    0 ROOT
