@<TRIPOS>MOLECULE
molecule
   57    60     1     0     0
SMALL
bcc


@<TRIPOS>ATOM
      1 O2'          0.0000     0.0000     0.0000 oh         1 AHZ      -0.573800
      2 C2'          1.4300     0.0000     0.0000 c3         1 AHZ       0.084100
      3 C3'          1.9820     0.0000     1.4460 c3         1 AHZ       0.084100
      4 O3'          0.9880     0.4670     2.3610 oh         1 AHZ      -0.585800
      5 C1'          1.9830     1.3360    -0.5580 c3         1 AHZ       0.250800
      6 N9           2.0840     1.2810    -2.0190 na         1 AHZ      -0.245000
      7 C8           3.1930     0.9540    -2.7390 cc         1 AHZ       0.481700
      8 N7           2.9290     1.0060    -4.0120 nd         1 AHZ      -0.608100
      9 C5           1.6360     1.3700    -4.1890 ca         1 AHZ      -0.147200
     10 C6           0.8140     1.5820    -5.3090 ca         1 AHZ       0.750200
     11 N1          -0.4490     1.9440    -5.1070 nb         1 AHZ      -0.793000
     12 C2          -0.9290     2.1020    -3.8880 ca         1 AHZ       0.672900
     13 N6           1.3080     1.4190    -6.5920 nv         1 AHZ      -1.072500
     14 C4           1.0760     1.5450    -2.9120 ca         1 AHZ       0.439800
     15 N3          -0.1960     1.9140    -2.8100 nb         1 AHZ      -0.729000
     16 O4'          3.2940     1.4340     0.0390 os         1 AHZ      -0.377600
     17 C4'          3.1710     0.9790     1.3970 c3         1 AHZ       0.115100
     18 C5'          4.4530     0.2620     1.8230 c3         1 AHZ       0.235400
     19 O5'          5.5270     1.2020     1.8860 os         1 AHZ      -0.592200
     20 PA           7.0280     0.7940     2.3020 p5         1 AHZ       1.427800
     21 O2A          7.0070     0.0880     3.6760 o          1 AHZ      -0.834500
     22 O1A          7.6140    -0.1630     1.2400 o          1 AHZ      -0.834500
     23 O3A          7.9390     2.1180     2.3930 os         1 AHZ      -0.715800
     24 PB           9.3810     2.4420     3.0310 p5         1 AHZ       1.433800
     25 O1B          9.5220     1.7120     4.3850 o          1 AHZ      -0.837500
     26 O2B         10.4900     1.9600     2.0670 o          1 AHZ      -0.837500
     27 O3B          9.5230     4.0300     3.2600 os         1 AHZ      -0.623200
     28 C7T         10.6500     4.6240     3.9080 c3         1 AHZ       0.233400
     29 C6T         10.4640     6.1430     3.9590 c3         1 AHZ      -0.006100
     30 C5T         11.6510     6.7700     4.6430 cc         1 AHZ      -0.180700
     31 S1T         11.7900     7.0630     6.3230 ss         1 AHZ      -0.233300
     32 C2T         13.3930     7.7500     6.0800 cc         1 AHZ       0.441900
     33 C1R         14.2610     8.2840     7.1360 c          1 AHZ       0.835100
     34 O1R         13.8850     8.2750     8.3010 o          1 AHZ      -0.824300
     35 O2R         15.3610     8.7400     6.8520 o          1 AHZ      -0.824300
     36 N3T         13.6840     7.7060     4.8070 nd         1 AHZ      -0.677000
     37 C4T         12.7750     7.1850     4.0300 cd         1 AHZ       0.334600
     38 C1M         12.9680     7.0590     2.5410 c3         1 AHZ      -0.111400
     39 H1          -0.3140    -0.8800    -0.1250 ho         1 AHZ       0.391000
     40 H2'          1.8220    -0.8400    -0.5600 h1         1 AHZ       0.054700
     41 H3'          2.3210    -0.9920     1.7200 h1         1 AHZ       0.054700
     42 H3           0.8920    -0.1530     3.0640 ho         1 AHZ       0.398000
     43 H1'          1.3600     2.1650    -0.2440 h2         1 AHZ       0.102700
     44 H8           4.1540     0.6890    -2.3140 h5         1 AHZ       0.120800
     45 H2          -1.9650     2.3970    -3.7690 h5         1 AHZ       0.047100
     46 HN61         1.2320     0.5320    -7.0480 hn         1 AHZ       0.434300
     47 HN62         1.7050     2.1990    -7.0780 hn         1 AHZ       0.434300
     48 H4'          2.9800     1.8220     2.0500 h1         1 AHZ       0.086700
     49 H5'1         4.3090    -0.1870     2.7980 h1         1 AHZ       0.033700
     50 H5'2         4.6920    -0.5100     1.1010 h1         1 AHZ       0.033700
     51 H7T1        11.5510     4.3890     3.3550 h1         1 AHZ       0.032200
     52 H7T2        10.7330     4.2360     4.9160 h1         1 AHZ       0.032200
     53 H6T1        10.3810     6.5310     2.9510 hc         1 AHZ       0.040700
     54 H6T2         9.5630     6.3780     4.5130 hc         1 AHZ       0.040700
     55 H1M1        13.0240     6.0110     2.2720 hc         1 AHZ       0.035367
     56 H1M2        13.8870     7.5560     2.2530 hc         1 AHZ       0.035367
     57 H1M3        12.1330     7.5200     2.0280 hc         1 AHZ       0.035367
@<TRIPOS>BOND
     1     1     2 1
     2     1    39 1
     3     2     3 1
     4     2     5 1
     5     2    40 1
     6     3     4 1
     7     3    17 1
     8     3    41 1
     9     4    42 1
    10     5     6 1
    11     5    16 1
    12     5    43 1
    13     6     7 1
    14     6    14 1
    15     7     8 2
    16     7    44 1
    17     8     9 1
    18     9    10 ar
    19     9    14 ar
    20    10    11 ar
    21    10    13 1
    22    11    12 ar
    23    12    15 ar
    24    12    45 1
    25    13    46 1
    26    13    47 1
    27    14    15 ar
    28    16    17 1
    29    17    18 1
    30    17    48 1
    31    18    19 1
    32    18    49 1
    33    18    50 1
    34    19    20 1
    35    20    21 1
    36    20    22 1
    37    20    23 1
    38    23    24 1
    39    24    25 1
    40    24    26 1
    41    24    27 1
    42    27    28 1
    43    28    29 1
    44    28    51 1
    45    28    52 1
    46    29    30 1
    47    29    53 1
    48    29    54 1
    49    30    31 1
    50    30    37 2
    51    31    32 1
    52    32    33 1
    53    32    36 2
    54    33    34 1
    55    33    35 1
    56    36    37 1
    57    37    38 1
    58    38    55 1
    59    38    56 1
    60    38    57 1
@<TRIPOS>SUBSTRUCTURE
     1 AHZ         1 TEMP              0 ****  ****    0 ROOT
