@<TRIPOS>MOLECULE
molecule
   51    53     1     0     0
SMALL
bcc


@<TRIPOS>ATOM
      1 C1           0.0000     0.0000     0.0000 c3         1 AI1       0.287900
      2 O1          -0.4730    -1.1540     0.6970 os         1 AI1      -0.311900
      3 C2           1.5310     0.0000     0.0000 c3         1 AI1       0.128100
      4 O2           2.0090    -1.1660    -0.6730 oh         1 AI1      -0.589800
      5 C3           2.0300     0.0000     1.4490 c3         1 AI1       0.126100
      6 O3           3.4510     0.1500     1.4660 oh         1 AI1      -0.596800
      7 C4           1.3770     1.1700     2.1910 c3         1 AI1       0.104100
      8 O4           1.8480     2.4040     1.6480 oh         1 AI1      -0.584800
      9 C5          -0.1420     1.0800     2.0260 c3         1 AI1       0.129100
     10 O5          -0.4830     1.1750     0.6460 os         1 AI1      -0.381600
     11 C6          -0.8060     2.2250     2.7950 c3         1 AI1       0.148400
     12 O6          -2.2240     2.1400     2.6440 oh         1 AI1      -0.596800
     13 C1'         -1.8210    -1.1880     0.5310 ca         1 AI1       0.102100
     14 C2'         -2.4420    -0.2640    -0.3000 ca         1 AI1      -0.170000
     15 C3'         -3.8120    -0.2930    -0.4740 ca         1 AI1      -0.100000
     16 C4'         -4.5740    -1.2430     0.1780 ca         1 AI1      -0.137000
     17 C5'         -3.9600    -2.1740     1.0160 ca         1 AI1      -0.119600
     18 C6'         -2.5760    -2.1470     1.1840 ca         1 AI1      -0.095000
     19 C7'         -4.7720    -3.1920     1.7150 c          1 AI1       0.674700
     20 O1'         -4.2350    -4.0030     2.4430 o          1 AI1      -0.610100
     21 N1'         -6.1090    -3.2190     1.5450 ns         1 AI1      -0.582900
     22 C1B         -6.9150    -4.2280     2.2380 c3         1 AI1       0.162300
     23 C2B         -8.3680    -4.0430     1.8820 ca         1 AI1      -0.118300
     24 C3B         -8.9000    -4.7030     0.7900 ca         1 AI1      -0.112000
     25 C4B        -10.2330    -4.5330     0.4630 ca         1 AI1      -0.131000
     26 C5B        -11.0320    -3.7050     1.2270 ca         1 AI1      -0.120000
     27 C6B        -10.4990    -3.0450     2.3190 ca         1 AI1      -0.131000
     28 C7B         -9.1680    -3.2190     2.6490 ca         1 AI1      -0.112000
     29 H1          -0.3580    -0.0190    -1.0220 h2         1 AI1       0.093700
     30 H2           1.8910     0.8880    -0.5050 h1         1 AI1       0.082700
     31 HO2          2.4520    -0.9120    -1.4660 ho         1 AI1       0.409000
     32 H3           1.7520    -0.9320     1.9270 h1         1 AI1       0.066700
     33 HO3          3.8330    -0.5340     1.9910 ho         1 AI1       0.407000
     34 H4           1.6280     1.1140     3.2440 h1         1 AI1       0.043700
     35 HO4          2.4340     2.8150     2.2620 ho         1 AI1       0.406000
     36 H5          -0.4890     0.1300     2.4160 h1         1 AI1       0.078700
     37 HC61        -0.4570     3.1730     2.4030 h1         1 AI1       0.034200
     38 HC62        -0.5490     2.1520     3.8450 h1         1 AI1       0.034200
     39 HO6         -2.6390     2.7570     3.2230 ho         1 AI1       0.402000
     40 H2'         -1.8490     0.4830    -0.8130 ha         1 AI1       0.155000
     41 H3'         -4.2900     0.4300    -1.1230 ha         1 AI1       0.134000
     42 H4'         -5.6490    -1.2620     0.0420 ha         1 AI1       0.124000
     43 H6'         -2.0930    -2.8680     1.8340 ha         1 AI1       0.166000
     44 HN'1        -6.5530    -2.5430     0.9550 hn         1 AI1       0.320500
     45 H1'1        -6.5930    -5.2170     1.9360 h1         1 AI1       0.059200
     46 H1'2        -6.7890    -4.1180     3.3080 h1         1 AI1       0.059200
     47 H3B         -8.2740    -5.3520     0.1910 ha         1 AI1       0.135500
     48 H4B        -10.6500    -5.0490    -0.3930 ha         1 AI1       0.132000
     49 H5'        -12.0750    -3.5700     0.9690 ha         1 AI1       0.131000
     50 H6B        -11.1260    -2.3980     2.9190 ha         1 AI1       0.132000
     51 H7'         -8.7510    -2.7020     3.5040 ha         1 AI1       0.135500
@<TRIPOS>BOND
     1     1     2 1
     2     1     3 1
     3     1    10 1
     4     1    29 1
     5     2    13 1
     6     3     4 1
     7     3     5 1
     8     3    30 1
     9     4    31 1
    10     5     6 1
    11     5     7 1
    12     5    32 1
    13     6    33 1
    14     7     8 1
    15     7     9 1
    16     7    34 1
    17     8    35 1
    18     9    10 1
    19     9    11 1
    20     9    36 1
    21    11    12 1
    22    11    37 1
    23    11    38 1
    24    12    39 1
    25    13    14 ar
    26    13    18 ar
    27    14    15 ar
    28    14    40 1
    29    15    16 ar
    30    15    41 1
    31    16    17 ar
    32    16    42 1
    33    17    18 ar
    34    17    19 1
    35    18    43 1
    36    19    20 2
    37    19    21 1
    38    21    22 1
    39    21    44 1
    40    22    23 1
    41    22    45 1
    42    22    46 1
    43    23    24 ar
    44    23    28 ar
    45    24    25 ar
    46    24    47 1
    47    25    26 ar
    48    25    48 1
    49    26    27 ar
    50    26    49 1
    51    27    28 ar
    52    27    50 1
    53    28    51 1
@<TRIPOS>SUBSTRUCTURE
     1 AI1         1 TEMP              0 ****  ****    0 ROOT
