@<TRIPOS>MOLECULE
molecule
   40    44     1     0     0
SMALL
bcc


@<TRIPOS>ATOM
      1 C1           0.0000     0.0000     0.0000 ca         1 AI3      -0.237000
      2 C2           1.4030     0.0000     0.0000 ca         1 AI3       0.060000
      3 C3           2.1050     0.0000     1.2360 ca         1 AI3      -0.071000
      4 C4           1.3840    -0.0000     2.4400 ca         1 AI3      -0.200000
      5 C5           0.0200    -0.0010     2.4080 ca         1 AI3       0.150100
      6 C6          -0.6730    -0.0070     1.1890 ca         1 AI3       0.190100
      7 C13          3.5090    -0.0010     1.2110 ca         1 AI3       0.002700
      8 N14          4.1520    -0.0020     0.0700 na         1 AI3      -0.036100
      9 C15          3.5310    -0.0020    -1.1180 cp         1 AI3       0.010700
     10 C16          2.1510     0.0000    -1.1860 ca         1 AI3      -0.070300
     11 C22          1.7570     0.0010    -2.6420 c3         1 AI3       0.015200
     12 C23          3.0500    -0.0040    -3.4200 ca         1 AI3      -0.048300
     13 C24          4.0900    -0.0060    -2.4930 cp         1 AI3      -0.100000
     14 C29          5.4130    -0.0130    -2.9430 ca         1 AI3      -0.082000
     15 C30          5.6810    -0.0150    -4.3000 ca         1 AI3       0.066100
     16 C31          4.6330    -0.0120    -5.2190 ca         1 AI3       0.108100
     17 C32          3.3190    -0.0050    -4.7710 ca         1 AI3      -0.098000
     18 O38          5.1570    -0.0150    -6.4790 os         1 AI3      -0.301900
     19 C39          6.5260    -0.4340    -6.3240 c3         1 AI3       0.330200
     20 O40          6.8610    -0.0220    -4.9860 os         1 AI3      -0.308900
     21 O45         -2.0320    -0.0070     1.1890 os         1 AI3      -0.243900
     22 C47         -2.4460    -0.0010    -0.1790 c3         1 AI3       0.090700
     23 O49         -0.6780    -0.0000     3.5750 os         1 AI3      -0.248900
     24 C51          0.2850    -0.0000     4.6310 c3         1 AI3       0.092700
     25 H1          -0.5460    -0.0050    -0.9360 ha         1 AI3       0.179000
     26 H4           1.9080     0.0040     3.3880 ha         1 AI3       0.176000
     27 H13          4.0650    -0.0010     2.1410 h4         1 AI3       0.198000
     28 H14          5.1530    -0.0030     0.0860 hn         1 AI3       0.327700
     29 H221         1.1880     0.8940    -2.8720 hc         1 AI3       0.099200
     30 H222         1.1810    -0.8860    -2.8720 hc         1 AI3       0.099200
     31 H29          6.2280     0.0220    -2.2300 ha         1 AI3       0.144000
     32 H32          2.5040     0.0020    -5.4850 ha         1 AI3       0.167000
     33 H391         6.6060    -1.5110    -6.4210 h2         1 AI3       0.089700
     34 H392         7.1590     0.0670    -7.0460 h2         1 AI3       0.089700
     35 H471        -2.0640    -0.8840    -0.6760 h1         1 AI3       0.061033
     36 H472        -2.0600     0.8850    -0.6690 h1         1 AI3       0.061033
     37 H473        -3.5280     0.0010    -0.2280 h1         1 AI3       0.061033
     38 H511         0.9050     0.8850     4.5550 h1         1 AI3       0.058700
     39 H512        -0.2270    -0.0020     5.5860 h1         1 AI3       0.058700
     40 H513         0.9060    -0.8840     4.5540 h1         1 AI3       0.058700
@<TRIPOS>BOND
     1     1     2 ar
     2     1     6 ar
     3     1    25 1
     4     2     3 ar
     5     2    10 ar
     6     3     4 ar
     7     3     7 ar
     8     4     5 ar
     9     4    26 1
    10     5     6 ar
    11     5    23 1
    12     6    21 1
    13     7     8 1
    14     7    27 1
    15     8     9 2
    16     8    28 1
    17     9    10 ar
    18     9    13 1
    19    10    11 1
    20    11    12 1
    21    11    29 1
    22    11    30 1
    23    12    13 ar
    24    12    17 ar
    25    13    14 ar
    26    14    15 ar
    27    14    31 1
    28    15    16 ar
    29    15    20 1
    30    16    17 ar
    31    16    18 1
    32    17    32 1
    33    18    19 1
    34    19    20 1
    35    19    33 1
    36    19    34 1
    37    21    22 1
    38    22    35 1
    39    22    36 1
    40    22    37 1
    41    23    24 1
    42    24    38 1
    43    24    39 1
    44    24    40 1
@<TRIPOS>SUBSTRUCTURE
     1 AI3         1 TEMP              0 ****  ****    0 ROOT
