@<TRIPOS>MOLECULE
AI3
   40    44     1     0     0
SMALL
bcc


@<TRIPOS>ATOM
      1 C1          0.0900   -0.0030   -0.0680 ca        1 AI3     -0.245000
      2 C2          1.5070   -0.0230   -0.0760 ca        1 AI3      0.083000
      3 C3          2.2240   -0.0120    1.1680 ca        1 AI3     -0.063000
      4 C4          1.5010    0.0200    2.3970 ca        1 AI3     -0.199000
      5 C5          0.1280    0.0400    2.3900 ca        1 AI3      0.159100
      6 C6         -0.5980    0.0290    1.1280 ca        1 AI3      0.212100
      7 C13         3.6320   -0.0330    1.1670 ca        1 AI3     -0.005300
      8 N14         4.3490   -0.0630    0.0120 na        1 AI3     -0.080100
      9 C15         3.6900   -0.0750   -1.1880 cp        1 AI3      0.041700
     10 C16         2.2720   -0.0550   -1.2530 ca        1 AI3     -0.091300
     11 C22         1.8430   -0.0740   -2.6920 c3        1 AI3      0.003200
     12 C23         3.1450   -0.1070   -3.4460 ca        1 AI3     -0.045300
     13 C24         4.2440   -0.1070   -2.5380 cp        1 AI3     -0.113000
     14 C29         5.5800   -0.1340   -2.9620 ca        1 AI3     -0.072000
     15 C30         5.7480   -0.1610   -4.3330 ca        1 AI3      0.063100
     16 C31         4.6510   -0.1610   -5.2450 ca        1 AI3      0.114100
     17 C32         3.3280   -0.1340   -4.8290 ca        1 AI3     -0.103000
     18 O38         5.1340   -0.1910   -6.5380 os        1 AI3     -0.311900
     19 C39         6.5840   -0.2110   -6.4540 c3        1 AI3      0.320200
     20 O40         6.9360   -0.1910   -5.0470 os        1 AI3     -0.318900
     21 O45        -1.9500    0.0510    1.2660 os        1 AI3     -0.270900
     22 C47        -2.7270    0.0410    0.0630 c3        1 AI3      0.099700
     23 O49        -0.6790    0.0710    3.4910 os        1 AI3     -0.279900
     24 C51        -0.0300    0.0840    4.7650 c3        1 AI3      0.101700
     25 H1         -0.4410   -0.0120   -1.0320 ha        1 AI3      0.167000
     26 H4          2.0650    0.0290    3.3430 ha        1 AI3      0.165000
     27 H13         4.2070   -0.0240    2.1150 h4        1 AI3      0.198000
     28 H14         5.3520   -0.0780    0.0290 hn        1 AI3      0.335700
     29 H221        1.2470    0.8400   -2.9490 hc        1 AI3      0.105700
     30 H222        1.2200   -0.9800   -2.9170 hc        1 AI3      0.105700
     31 H29         6.4310   -0.1340   -2.2700 ha        1 AI3      0.161000
     32 H32         2.4900   -0.1340   -5.5390 ha        1 AI3      0.180000
     33 H391        6.9520   -1.1670   -6.9020 h2        1 AI3      0.095700
     34 H392        6.9800    0.7170   -6.9350 h2        1 AI3      0.095700
     35 H471       -2.5070    0.9480   -0.5490 h1        1 AI3      0.066700
     36 H472       -3.7790    0.0630    0.4500 h1        1 AI3      0.066700
     37 H473       -2.5340   -0.8940   -0.5160 h1        1 AI3      0.066700
     38 H511        0.5770   -0.8430    4.9030 h1        1 AI3      0.063367
     39 H512       -0.8910    0.1100    5.4820 h1        1 AI3      0.063367
     40 H513        0.6030    0.9980    4.8700 h1        1 AI3      0.063367
@<TRIPOS>BOND
     1    1    2 ar  
     2    1    6 ar  
     3    1   25 1   
     4    2    3 ar  
     5    2   10 ar  
     6    3    4 ar  
     7    3    7 ar  
     8    4    5 ar  
     9    4   26 1   
    10    5    6 ar  
    11    5   23 1   
    12    6   21 1   
    13    7    8 1   
    14    7   27 1   
    15    8    9 2   
    16    8   28 1   
    17    9   10 ar  
    18    9   13 1   
    19   10   11 1   
    20   11   12 1   
    21   11   29 1   
    22   11   30 1   
    23   12   13 ar  
    24   12   17 ar  
    25   13   14 ar  
    26   14   15 ar  
    27   14   31 1   
    28   15   16 ar  
    29   15   20 1   
    30   16   17 ar  
    31   16   18 1   
    32   17   32 1   
    33   18   19 1   
    34   19   20 1   
    35   19   33 1   
    36   19   34 1   
    37   21   22 1   
    38   22   35 1   
    39   22   36 1   
    40   22   37 1   
    41   23   24 1   
    42   24   38 1   
    43   24   39 1   
    44   24   40 1   
@<TRIPOS>SUBSTRUCTURE
     1 AI3         1 TEMP              0 ****  ****    0 ROOT
