@<TRIPOS>MOLECULE
AI7
   36    34     1     0     0
SMALL
bcc


@<TRIPOS>ATOM
      1 C1         -0.1660   -0.1650    0.5060 c2        1 AI7      0.020000
      2 C2          0.8520   -1.5550    3.1760 c2        1 AI7     -0.227000
      3 C3         -1.7610   -0.4870    2.4340 c1        1 AI7      0.097000
      4 C4          6.9530    3.6010   -4.8780 c3        1 AI7     -0.158000
      5 C6          3.5910    0.2830   -1.5780 c1        1 AI7     -0.070000
      6 C7          1.5540   -0.9970    2.1890 c2        1 AI7     -0.105000
      7 C8          2.6320    0.4690   -0.5150 c3        1 AI7     -0.123000
      8 C9          7.9140    4.7380   -6.8840 c3        1 AI7     -0.220500
      9 C10         6.8120    3.8510   -6.3640 c3        1 AI7     -0.157000
     10 C11         1.0550   -0.6170    0.8810 c2        1 AI7     -0.074000
     11 C12         5.8450    2.7090   -4.3590 c3        1 AI7     -0.157000
     12 C13         5.9790    2.4570   -2.8800 c3        1 AI7     -0.220500
     13 C14        -1.3060    0.0410    1.3380 c2        1 AI7     -0.481000
     14 O15        -2.6950    0.8810   -0.4450 o         1 AI7     -0.498000
     15 O16         2.0260   -0.7710   -0.1250 os        1 AI7     -0.267000
     16 O17        -2.4590    2.1850    1.3810 o         1 AI7     -0.498000
     17 H1         -0.3220    0.1000   -0.5610 ha        1 AI7      0.144000
     18 H2         -0.2130   -1.8190    3.1050 ha        1 AI7      0.116000
     19 H3          1.3160   -1.7880    4.1440 ha        1 AI7      0.116000
     20 H41         5.9350    3.4180   -2.3120 hc        1 AI7      0.075333
     21 H42         6.9340    4.5790   -4.3290 hc        1 AI7      0.074500
     22 H61         5.1480    1.7930   -2.5180 hc        1 AI7      0.075333
     23 H62         3.7030   -0.7380   -1.9730 ha        1 AI7      0.053000
     24 H7          2.6350   -0.8030    2.3200 ha        1 AI7      0.102000
     25 H81         3.1460    0.9400    0.3720 h1        1 AI7      0.141500
     26 H82         1.8380    1.1920   -0.8740 h1        1 AI7      0.141500
     27 H91         7.9470    3.1250   -4.6690 hc        1 AI7      0.074500
     28 H92         8.9130    4.2700   -6.7100 hc        1 AI7      0.075333
     29 H93         7.7910    4.9100   -7.9810 hc        1 AI7      0.075333
     30 H101        7.8980    5.7290   -6.3690 hc        1 AI7      0.075333
     31 H102        5.8170    4.3260   -6.5700 hc        1 AI7      0.077000
     32 H121        6.8280    2.8710   -6.9110 hc        1 AI7      0.077000
     33 H122        5.8640    1.7310   -4.9100 hc        1 AI7      0.077000
     34 H131        4.8510    3.1860   -4.5700 hc        1 AI7      0.077000
     35 H132        6.9530    1.9620   -2.6520 hc        1 AI7      0.075333
     36 C5         -2.2740    1.1610    0.6960 c2        1 AI7      0.417000
@<TRIPOS>BOND
     1    1   10 1   
     2    1   13 1   
     3    1   17 1   
     4    2    6 1   
     5    2   18 1   
     6    2   19 1   
     7    3   13 1   
     8    4    9 1   
     9    4   11 1   
    10    4   21 1   
    11    4   27 1   
    12    5    7 1   
    13    5   23 1   
    14    6   10 1   
    15    6   24 1   
    16    7   15 1   
    17    7   25 1   
    18    7   26 1   
    19    8    9 1   
    20    8   28 1   
    21    8   29 1   
    22    8   30 1   
    23    9   31 1   
    24    9   32 1   
    25   10   15 1   
    26   11   12 1   
    27   11   33 1   
    28   11   34 1   
    29   12   20 1   
    30   12   22 1   
    31   12   35 1   
    32   13   36 1   
    33   14   36 1   
    34   16   36 1   
@<TRIPOS>SUBSTRUCTURE
     1 AI7         1 TEMP              0 ****  ****    0 ROOT
