@<TRIPOS>MOLECULE
molecule
   36    36     1     0     0
SMALL
bcc


@<TRIPOS>ATOM
      1 C1           0.0000     0.0000     0.0000 ca         1 AI7      -0.126000
      2 C2           1.4100     0.0000     2.4070 ca         1 AI7      -0.181000
      3 C3           0.0150     0.0000     2.4160 ca         1 AI7      -0.085000
      4 C4           6.5430     3.1650    -4.2310 c3         1 AI7      -0.079400
      5 C6           3.6050     1.1740    -2.6040 c3         1 AI7      -0.090400
      6 C7           2.1000     0.0000     1.1940 ca         1 AI7      -0.244000
      7 C8           3.3410     0.6310    -1.2060 c3         1 AI7       0.151400
      8 C9           8.1930     4.3050    -5.7570 c3         1 AI7      -0.090100
      9 C10          6.8110     3.6780    -5.6470 c3         1 AI7      -0.081400
     10 C11          1.3900     0.0000     0.0000 ca         1 AI7       0.112100
     11 C12          5.1910     2.4610    -4.0840 c3         1 AI7      -0.077400
     12 C13          4.9550     1.8840    -2.6870 c3         1 AI7      -0.075400
     13 C14         -0.6900     0.0000     1.2120 ca         1 AI7      -0.057600
     14 O15         -2.8660    -0.0010     0.2190 o          1 AI7      -0.838300
     15 O16          2.0690    -0.0020    -1.1920 os         1 AI7      -0.350900
     16 O17         -2.6560    -0.0010     2.4830 o          1 AI7      -0.838300
     17 H1          -0.5420    -0.1090    -0.9320 ha         1 AI7       0.158000
     18 H2           1.9580     0.0060     3.3410 ha         1 AI7       0.105000
     19 H3          -0.2910     0.0040     3.4550 ha         1 AI7       0.142000
     20 H41          7.3280     2.4700    -3.9590 hc         1 AI7       0.036200
     21 H42          6.5720     4.0050    -3.5470 hc         1 AI7       0.036200
     22 H61          2.8200     1.8740    -2.8650 hc         1 AI7       0.051200
     23 H62          3.5940     0.3520    -3.3090 hc         1 AI7       0.051200
     24 H7           3.1090    -0.2060     1.5310 ha         1 AI7       0.122000
     25 H81          3.3480     1.4460    -0.4920 h1         1 AI7       0.028700
     26 H82          4.1070    -0.0880    -0.9450 h1         1 AI7       0.028700
     27 H91          8.9460     3.5620    -5.5230 hc         1 AI7       0.030367
     28 H92          8.2720     5.1310    -5.0600 hc         1 AI7       0.030367
     29 H93          8.3460     4.6690    -6.7660 hc         1 AI7       0.030367
     30 H101         6.7410     2.8510    -6.3430 hc         1 AI7       0.038200
     31 H102         6.0650     4.4210    -5.9020 hc         1 AI7       0.038200
     32 H121         5.1400     1.6550    -4.8060 hc         1 AI7       0.039200
     33 H122         4.4040     3.1730    -4.3030 hc         1 AI7       0.039200
     34 H131         4.9780     2.6890    -1.9620 hc         1 AI7       0.037200
     35 H132         5.7420     1.1770    -2.4570 hc         1 AI7       0.037200
     36 C5          -2.1440    -0.0000     1.2210 c          1 AI7       0.874200
@<TRIPOS>BOND
     1    14    36 1
     2     3     2 ar
     3     3    13 ar
     4     2     6 ar
     5    36    13 1
     6    36    16 1
     7    13     1 ar
     8     6    10 ar
     9     1    10 ar
    10    10    15 1
    11    15     7 1
    12     7     5 1
    13     5    12 1
    14    12    11 1
    15     4    11 1
    16     4     9 1
    17     8     9 1
    18     1    17 1
    19     2    18 1
    20     3    19 1
    21     4    20 1
    22     4    21 1
    23     5    22 1
    24     5    23 1
    25     6    24 1
    26     7    25 1
    27     7    26 1
    28     8    27 1
    29     8    28 1
    30     8    29 1
    31     9    30 1
    32     9    31 1
    33    11    32 1
    34    11    33 1
    35    12    34 1
    36    12    35 1
@<TRIPOS>SUBSTRUCTURE
     1 AI7         1 TEMP              0 ****  ****    0 ROOT
