@<TRIPOS>MOLECULE
AI8
   61    64     1     0     0
SMALL
bcc


@<TRIPOS>ATOM
      1 S1           0.0000     0.0000     0.0000 ss         1 AI8      -0.425200
      2 N2           2.2580     0.0000     1.4040 nu         1 AI8      -0.358000
      3 S2          -0.0280     2.4910     3.5600 ss         1 AI8      -0.103900
      4 N3           1.9030    -1.2430    -2.1050 ns         1 AI8      -0.193900
      5 S3          -2.1160     0.1900     3.1830 ss         1 AI8      -0.312300
      6 C4           1.8210     0.0000     0.0000 c3         1 AI8       0.243600
      7 N4           2.8300    -2.5560    -5.3510 n2         1 AI8      -0.281200
      8 S4          -0.5210     0.8490    -4.9250 ss         1 AI8      -0.112300
      9 C5           2.3430    -1.2530    -0.7070 c3         1 AI8      -0.090300
     10 N5          -2.2090     1.8490     5.0640 nc         1 AI8      -0.637000
     11 C6           1.8030    -2.4800    -0.0190 c          1 AI8       0.648900
     12 N6           0.7300    -0.8420    -6.1320 nc         1 AI8      -0.700000
     13 O6           3.5480    -2.6090    -2.7050 o          1 AI8      -0.642100
     14 C7           1.6600     0.8510     2.3400 ce         1 AI8       0.073800
     15 N7           0.6300    -0.0310    -4.0370 nd         1 AI8      -0.478100
     16 O7           3.9150    -3.3790    -4.9670 os         1 AI8      -0.136300
     17 C8          -0.3580     1.4900     0.9760 c3         1 AI8       0.191900
     18 N8          -0.8240     0.2470    -7.6290 nv         1 AI8      -0.430500
     19 C9           0.5120     1.5110     2.1990 c2         1 AI8      -0.231600
     20 N9          -5.8930     1.6040     8.5130 na         1 AI8       0.620900
     21 C10          2.3460     1.0270     3.5680 c          1 AI8       0.923800
     22 C12          2.2290    -1.8150    -4.4650 ce         1 AI8       0.222300
     23 C13         -1.4650     1.5880     4.0340 cd         1 AI8       0.627700
     24 C14          1.1690    -0.8700    -4.8860 cc         1 AI8       0.616700
     25 C15         -3.2550     1.0590     5.2680 cc         1 AI8       0.343800
     26 C16         -3.4150     0.0730     4.3670 cd         1 AI8      -0.145400
     27 C17         -4.1820     1.2510     6.4070 ca         1 AI8       0.016500
     28 C18         -0.2120     0.0310    -6.4080 cd         1 AI8       0.556300
     29 C19         -5.2790     0.4030     6.5920 ca         1 AI8      -0.057000
     30 C20         -3.9870     2.2880     7.3250 ca         1 AI8      -0.057000
     31 C21          4.4790    -4.1370    -6.0400 c3         1 AI8       0.210400
     32 C22         -6.1160     0.6170     7.6660 ca         1 AI8      -0.260800
     33 C23         -4.8740     2.4300     8.3730 ca         1 AI8      -0.260800
     34 C24          5.6370    -4.9850    -5.5130 c3         1 AI8       0.002900
     35 HN2          2.9910    -0.6160     1.6940 hn         1 AI8       0.334800
     36 HN3          1.0580    -0.7720    -2.3600 hn         1 AI8       0.242500
     37 H4           2.1880     0.8900    -0.4980 h2         1 AI8       0.060700
     38 H5           3.4260    -1.2650    -0.6690 h1         1 AI8       0.079700
     39 H6           2.0660    -2.6820     1.0130 h4         1 AI8      -0.022800
     40 H18         -1.3990     1.4820     1.2760 h1         1 AI8       0.053700
     41 H28         -0.1570     2.3700     0.3770 h1         1 AI8       0.053700
     42 H1N8        -1.5440     0.9380    -7.7130 hn         1 AI8       0.274800
     43 H2N8        -0.5400    -0.2790    -8.4310 hn         1 AI8       0.274800
     44 H16         -4.2070    -0.6660     4.3690 h4         1 AI8       0.145000
     45 H19         -5.4680    -0.4090     5.9010 ha         1 AI8       0.165000
     46 H20         -3.1520     2.9700     7.2160 ha         1 AI8       0.165000
     47 H121         3.7200    -4.7850    -6.4620 h1         1 AI8      -0.003800
     48 H221         4.8440    -3.4630    -6.8050 h1         1 AI8      -0.003800
     49 H22         -6.9670    -0.0360     7.8180 h4         1 AI8       0.161500
     50 H23         -4.7300     3.2290     9.0910 h4         1 AI8       0.161500
     51 H124         6.0700    -5.5520    -6.3280 hc         1 AI8       0.011367
     52 H224         6.3920    -4.3380    -5.0820 hc         1 AI8       0.011367
     53 H324         5.2700    -5.6660    -4.7550 hc         1 AI8       0.011367
     54 H125        -7.8160     1.9430     9.2650 h1         1 AI8       0.053367
     55 H225        -6.7880     0.9160    10.2750 h1         1 AI8       0.053367
     56 H325        -6.5050     2.6610    10.2110 h1         1 AI8       0.053367
     57 O3           1.1200    -3.2650    -0.6320 o          1 AI8      -0.538100
     58 O4           1.8270     1.6600     4.4690 o          1 AI8      -0.797800
     59 O5           3.5740     0.4950     3.7360 o          1 AI8      -0.797800
     60 C25         -6.8100     1.7930     9.6390 c3         1 AI8      -0.082400
     61 C11          2.6060    -1.9170    -3.0370 c          1 AI8       0.495800
@<TRIPOS>BOND
     1     1     6 1   
     2     1    17 1   
     3     2     6 1   
     4     2    14 1   
     5     2    35 1   
     6     3    19 1   
     7     3    23 1   
     8     4     9 1   
     9     4    36 1   
    10     4    61 1   
    11     5    23 1   
    12     5    26 1   
    13     6     9 1   
    14     6    37 1   
    15     7    16 1   
    16     7    22 2   
    17     8    15 1   
    18     8    28 1   
    19     9    11 1   
    20     9    38 1   
    21    10    23 2   
    22    10    25 1   
    23    11    39 1   
    24    11    57 2   
    25    12    24 1   
    26    12    28 2   
    27    13    61 2   
    28    14    19 2   
    29    14    21 1   
    30    15    24 2   
    31    16    31 1   
    32    17    19 1   
    33    17    40 1   
    34    17    41 1   
    35    18    28 1   
    36    18    42 1   
    37    18    43 1   
    38    20    32 1   
    39    20    33 2   
    40    20    60 1   
    41    21    58 1   
    42    21    59 1   
    43    22    24 1   
    44    22    61 1   
    45    25    26 2   
    46    25    27 1   
    47    26    44 1   
    48    27    29 ar  
    49    27    30 ar  
    50    29    32 ar  
    51    29    45 1   
    52    30    33 ar  
    53    30    46 1   
    54    31    34 1   
    55    31    47 1   
    56    31    48 1   
    57    32    49 1   
    58    33    50 1   
    59    34    51 1   
    60    34    52 1   
    61    34    53 1   
    62    54    60 1   
    63    55    60 1   
    64    56    60 1   
@<TRIPOS>SUBSTRUCTURE
     1 AI8         1 TEMP              0 ****  ****    0 ROOT
