@<TRIPOS>MOLECULE
molecule
   61    64     1     0     0
SMALL
bcc


@<TRIPOS>ATOM
      1 S1           0.0000     0.0000     0.0000 ss         1 AI8      -0.376200
      2 N2           2.2580     0.0000     1.4040 nu         1 AI8      -0.776000
      3 S2          -0.0280     2.4910     3.5600 ss         1 AI8       0.109100
      4 N3           1.9030    -1.2430    -2.1050 ns         1 AI8      -0.561900
      5 S3          -2.1160     0.1900     3.1830 ss         1 AI8      -0.170300
      6 C4           1.8210     0.0000     0.0000 c3         1 AI8       0.336600
      7 N4           2.8300    -2.5560    -5.3510 n2         1 AI8      -0.342200
      8 S4          -0.5210     0.8490    -4.9250 ss         1 AI8       0.001700
      9 C5           2.3430    -1.2530    -0.7070 c3         1 AI8       0.004700
     10 N5          -2.2090     1.8490     5.0640 nc         1 AI8      -0.751000
     11 C6           1.8030    -2.4800    -0.0190 c          1 AI8       0.564900
     12 N6           0.7300    -0.8420    -6.1320 nd         1 AI8      -0.743000
     13 O6           3.5480    -2.6090    -2.7050 o          1 AI8      -0.580100
     14 C7           1.6600     0.8510     2.3400 ce         1 AI8       0.221800
     15 N7           0.6300    -0.0310    -4.0370 nc         1 AI8      -0.512100
     16 O7           3.9150    -3.3790    -4.9670 os         1 AI8      -0.149300
     17 C8          -0.3580     1.4900     0.9760 c3         1 AI8       0.104900
     18 N8          -0.8240     0.2470    -7.6290 nv         1 AI8      -1.006500
     19 C9           0.5120     1.5110     2.1990 c2         1 AI8      -0.302600
     20 N9          -5.8930     1.6040     8.5130 na         1 AI8       0.035900
     21 C10          2.3460     1.0270     3.5680 c          1 AI8       0.842800
     22 C12          2.2290    -1.8150    -4.4650 cf         1 AI8       0.290300
     23 C13         -1.4650     1.5880     4.0340 cd         1 AI8       0.542700
     24 C14          1.1690    -0.8700    -4.8860 cd         1 AI8       0.613700
     25 C15         -3.2550     1.0590     5.2680 cc         1 AI8       0.387800
     26 C16         -3.4150     0.0730     4.3670 cd         1 AI8      -0.205400
     27 C17         -4.1820     1.2510     6.4070 ca         1 AI8       0.036500
     28 C18         -0.2120     0.0310    -6.4080 cc         1 AI8       0.726300
     29 C19         -5.2790     0.4030     6.5920 ca         1 AI8      -0.136000
     30 C20         -3.9870     2.2880     7.3250 ca         1 AI8      -0.136000
     31 C21          4.4790    -4.1370    -6.0400 c3         1 AI8       0.136400
     32 C22         -6.1160     0.6170     7.6660 ca         1 AI8      -0.058800
     33 C23         -4.8740     2.4300     8.3730 ca         1 AI8      -0.058800
     34 C24          5.6370    -4.9850    -5.5130 c3         1 AI8      -0.091100
     35 HN2          2.9910    -0.6160     1.6940 hn         1 AI8       0.478800
     36 HN3          1.0580    -0.7730    -2.3600 hn         1 AI8       0.361500
     37 H4           2.1880     0.8900    -0.4980 h2         1 AI8       0.084700
     38 H5           3.4260    -1.2650    -0.6690 h1         1 AI8       0.109700
     39 H6           2.0640    -2.6810     1.0130 h4         1 AI8       0.014200
     40 H18         -0.1570     2.3700     0.3770 h1         1 AI8       0.069200
     41 H28         -1.3990     1.4820     1.2760 h1         1 AI8       0.069200
     42 H1N8        -1.8190     0.1760    -7.7090 hn         1 AI8       0.453300
     43 H2N8        -0.2740     0.4880    -8.4290 hn         1 AI8       0.453300
     44 H16         -4.2070    -0.6660     4.3690 h4         1 AI8       0.161000
     45 H19         -5.4680    -0.4090     5.9010 ha         1 AI8       0.202000
     46 H20         -3.1520     2.9700     7.2160 ha         1 AI8       0.202000
     47 H121         4.8440    -3.4630    -6.8050 h1         1 AI8       0.034700
     48 H221         3.7200    -4.7850    -6.4620 h1         1 AI8       0.034700
     49 H22         -6.9670    -0.0360     7.8180 h4         1 AI8       0.189000
     50 H23         -4.7300     3.2290     9.0910 h4         1 AI8       0.189000
     51 H124         6.0660    -5.5560    -6.3270 hc         1 AI8       0.048033
     52 H224         5.2720    -5.6620    -4.7500 hc         1 AI8       0.048033
     53 H324         6.3950    -4.3370    -5.0880 hc         1 AI8       0.048033
     54 H125        -6.5050     2.6610    10.2110 h1         1 AI8       0.083033
     55 H225        -6.7880     0.9160    10.2750 h1         1 AI8       0.083033
     56 H325        -7.8160     1.9430     9.2650 h1         1 AI8       0.083033
     57 O3           1.1200    -3.2650    -0.6320 o          1 AI8      -0.504100
     58 O4           1.8270     1.6600     4.4690 o          1 AI8      -0.772300
     59 O5           3.5740     0.4950     3.7360 o          1 AI8      -0.772300
     60 C25         -6.8100     1.7930     9.6390 c3         1 AI8      -0.014400
     61 C11          2.6060    -1.9170    -3.0370 c          1 AI8       0.565800
@<TRIPOS>BOND
     1    18    28 1
     2     8    28 1
     3     8    15 1
     4    28    12 2
     5    15    24 2
     6    12    24 1
     7    57    11 2
     8    24    22 1
     9    11     9 1
    10    22     7 2
    11    22    61 1
    12    58    21 1
    13     4    61 1
    14     4     9 1
    15    16     7 1
    16    16    31 1
    17    61    13 2
    18    21    59 1
    19    21    14 1
    20     9     6 1
    21     2    14 1
    22     2     6 1
    23    14    19 2
    24    34    31 1
    25    19     3 1
    26    19    17 1
    27     3    23 1
    28    17     1 1
    29     6     1 1
    30    23    10 2
    31    23     5 1
    32    10    25 1
    33    29    32 ar
    34    29    27 ar
    35     5    26 1
    36    32    20 2
    37    25    27 1
    38    25    26 2
    39    27    30 ar
    40    20    60 1
    41    20    33 1
    42    30    33 ar
    43     2    35 1
    44     4    36 1
    45     6    37 1
    46     9    38 1
    47    11    39 1
    48    17    40 1
    49    17    41 1
    50    18    42 1
    51    18    43 1
    52    26    44 1
    53    29    45 1
    54    30    46 1
    55    31    47 1
    56    31    48 1
    57    32    49 1
    58    33    50 1
    59    34    51 1
    60    34    52 1
    61    34    53 1
    62    60    54 1
    63    60    55 1
    64    60    56 1
@<TRIPOS>SUBSTRUCTURE
     1 AI8         1 TEMP              0 ****  ****    0 ROOT
