@<TRIPOS>MOLECULE
molecule
   37    37     1     0     0
SMALL
bcc


@<TRIPOS>ATOM
      1 O4           0.0000     0.0000     0.0000 o          1 AI9      -0.700500
      2 N3           1.8960     0.0000     1.1650 ns         1 AI9      -0.557500
      3 N5           1.2490    -0.0090    -2.4500 nz         1 AI9      -0.580400
      4 O2           3.8250     0.0110     2.2470 o          1 AI9      -0.659500
      5 N1           3.9530     0.0030     0.0400 ns         1 AI9      -0.461100
      6 C6           3.3120    -0.0040    -1.1860 cc         1 AI9       0.238200
      7 C5           1.9320    -0.0020    -1.2230 cd         1 AI9      -0.401200
      8 C4           1.2180     0.0000     0.0000 c          1 AI9       0.744700
      9 P           10.3400    -3.4830    -6.9740 p5         1 AI9       1.199900
     10 O1P         11.4630    -3.7920    -5.8630 o          1 AI9      -0.685500
     11 O2P         11.0510    -3.0120    -8.3390 o          1 AI9      -0.685500
     12 O3P          9.5460    -4.7060    -7.2280 o          1 AI9      -0.685500
     13 C5'          8.5150    -2.4660    -5.3080 c3         1 AI9       0.197400
     14 O5'          9.3690    -2.3140    -6.4440 os         1 AI9      -0.587200
     15 C4'          7.7320    -1.1720    -5.0810 c3         1 AI9       0.134100
     16 O4'          6.8540    -0.9460    -6.1850 oh         1 AI9      -0.597800
     17 C3'          6.9130    -1.2900    -3.7940 c3         1 AI9       0.148100
     18 O3'          7.7910    -1.5160    -2.6890 oh         1 AI9      -0.603800
     19 C2'          6.1290     0.0050    -3.5670 c3         1 AI9       0.110800
     20 O2'          5.2520     0.2300    -4.6720 oh         1 AI9      -0.560800
     21 C1'          5.3220    -0.1120    -2.3000 c2         1 AI9       0.358200
     22 N1'          4.0320    -0.0050    -2.3410 ne         1 AI9      -0.638300
     23 C2           3.2400     0.0050     1.1800 c          1 AI9       0.812500
     24 H1           1.3920    -0.0040     2.0290 hn         1 AI9       0.364500
     25 H2           0.2630    -0.0300    -2.2820 hn         1 AI9       0.437467
     26 H3           1.5160    -0.8180    -2.9750 hn         1 AI9       0.437467
     27 H8           9.1150    -2.6840    -4.4320 h1         1 AI9       0.033700
     28 H9           7.8230    -3.2810    -5.4830 h1         1 AI9       0.033700
     29 H10          8.4230    -0.3420    -4.9930 h1         1 AI9       0.042700
     30 H11          7.2970    -0.4280    -6.8370 ho         1 AI9       0.413000
     31 H12          6.2220    -2.1200    -3.8810 h1         1 AI9       0.059700
     32 H13          7.5910    -2.3480    -2.2940 ho         1 AI9       0.410000
     33 H14          6.8200     0.8340    -3.4800 h1         1 AI9       0.056700
     34 H15          5.1660     1.1570    -4.8210 ho         1 AI9       0.392000
     35 H16          5.8270    -0.2000    -1.3450 h4         1 AI9      -0.026200
     36 H4           4.9540     0.0040     0.0780 hn         1 AI9       0.367500
     37 H53          1.4830     0.8160    -2.9660 hn         1 AI9       0.437467
@<TRIPOS>BOND
     1    10     9 1
     2    11     9 1
     3     9    12 1
     4     9    14 1
     5    14    13 1
     6    13    15 1
     7    18    17 1
     8    15    17 1
     9    15    16 1
    10    17    19 1
    11    19    20 1
    12    19    21 1
    13    21    22 2
    14    22     6 1
    15     6     5 1
    16     6     7 2
    17     3     7 1
    18     5    23 1
    19     7     8 1
    20    23     4 2
    21    23     2 1
    22     8     2 1
    23     8     1 2
    24     2    24 1
    25     3    25 1
    26     3    26 1
    27    13    27 1
    28    13    28 1
    29    15    29 1
    30    16    30 1
    31    17    31 1
    32    18    32 1
    33    19    33 1
    34    20    34 1
    35    21    35 1
    36     5    36 1
    37    37     3 1
@<TRIPOS>SUBSTRUCTURE
     1 AI9         1 TEMP              0 ****  ****    0 ROOT
