@<TRIPOS>MOLECULE
AIA
   43    44     1     0     0
SMALL
bcc


@<TRIPOS>ATOM
      1 C2           0.0000     0.0000     0.0000 c3         1 AIA       0.154800
      2 C3           0.7310    -0.8740     2.1040 c3         1 AIA       0.022700
      3 C4          -1.5460    -1.5220     1.2700 c          1 AIA       0.608100
      4 C5           1.5480     0.0000     0.0000 c3         1 AIA      -0.005400
      5 C6          -0.5120     1.3670     0.1940 c1         1 AIA      -0.291100
      6 C7           1.8600     0.0000     1.5200 c3         1 AIA      -0.055400
      7 C8           0.2630    -0.2940     3.4410 c3         1 AIA      -0.085200
      8 C9          -2.5510    -1.5080     0.1460 c3         1 AIA      -0.133500
      9 N1          -0.3790    -0.8610     1.1390 n          1 AIA      -0.109800
     10 O10         -1.7880    -2.1270     2.2930 o          1 AIA      -0.651100
     11 C11         -0.9140     2.4560     0.3680 c1         1 AIA       0.028500
     12 N12          1.3510    -0.3900     4.4240 nz         1 AIA       0.098400
     13 C13         -3.3340    -0.1940     0.1800 c3         1 AIA      -0.094700
     14 N14         -3.4780    -2.6360     0.3050 nz         1 AIA       0.065400
     15 C16         -4.4080    -0.1940    -0.9230 c3         1 AIA      -0.035400
     16 C17         -4.0810    -0.0580     1.5220 c3         1 AIA      -0.035400
     17 C18         -5.7700    -0.0570    -0.2120 c3         1 AIA      -0.018400
     18 C19         -5.4260     0.6110     1.1420 c3         1 AIA      -0.018400
     19 H2          -0.3740    -0.4200    -0.9260 h1         1 AIA       0.051700
     20 H3           1.0850    -1.8880     2.2410 h1         1 AIA       0.059700
     21 H51          1.9340     0.8950    -0.4730 hc         1 AIA       0.060700
     22 H52          1.9340    -0.8950    -0.4730 hc         1 AIA       0.060700
     23 H71          2.8270    -0.4490     1.7110 hc         1 AIA       0.043700
     24 H72          1.8100     1.0060     1.9200 hc         1 AIA       0.043700
     25 H81         -0.5950    -0.8520     3.7960 hx         1 AIA       0.102700
     26 H82         -0.0130     0.7450     3.3070 hx         1 AIA       0.102700
     27 H9          -2.0330    -1.5960    -0.8010 hx         1 AIA       0.102700
     28 H11         -1.2910     3.4620     0.5100 ha         1 AIA       0.162500
     29 H121         0.9830    -0.2540     5.3440 hn         1 AIA       0.229467
     30 H122         1.7760    -1.2940     4.3640 hn         1 AIA       0.229467
     31 H13         -2.6650     0.6460     0.0430 hc         1 AIA       0.088700
     32 H141        -4.0290    -2.5020     1.1290 hn         1 AIA       0.243133
     33 H142        -2.9570    -3.4870     0.3870 hn         1 AIA       0.243133
     34 H161        -4.3710    -1.1250    -1.4760 hc         1 AIA       0.024700
     35 H162        -4.2530     0.6460    -1.5900 hc         1 AIA       0.024700
     36 H171        -4.2550    -1.0340     1.9580 hc         1 AIA       0.024700
     37 H172        -3.5240     0.5750     2.2020 hc         1 AIA       0.024700
     38 H181        -6.2110    -1.0340    -0.0500 hc         1 AIA       0.039700
     39 H182        -6.4350     0.5760    -0.7870 hc         1 AIA       0.039700
     40 H191        -5.2990     1.6800     1.0190 hc         1 AIA       0.039700
     41 H192        -6.1850     0.3890     1.8820 hc         1 AIA       0.039700
     42 H123         2.0310     0.3220     4.2400 hn         1 AIA       0.229467
     43 H143        -4.0790    -2.6890    -0.4930 hn         1 AIA       0.243133
@<TRIPOS>BOND
     1     1     4 1   
     2     1     5 1   
     3     1     9 1   
     4     1    19 1   
     5     2     6 1   
     6     2     7 1   
     7     2     9 1   
     8     2    20 1   
     9     3     8 1   
    10     3     9 1   
    11     3    10 2   
    12     4     6 1   
    13     4    21 1   
    14     4    22 1   
    15     5    11 3   
    16     6    23 1   
    17     6    24 1   
    18     7    12 1   
    19     7    25 1   
    20     7    26 1   
    21     8    13 1   
    22     8    14 1   
    23     8    27 1   
    24    11    28 1   
    25    12    29 1   
    26    12    30 1   
    27    12    42 1   
    28    13    15 1   
    29    13    16 1   
    30    13    31 1   
    31    14    32 1   
    32    14    33 1   
    33    14    43 1   
    34    15    17 1   
    35    15    34 1   
    36    15    35 1   
    37    16    18 1   
    38    16    36 1   
    39    16    37 1   
    40    17    18 1   
    41    17    38 1   
    42    17    39 1   
    43    18    40 1   
    44    18    41 1   
@<TRIPOS>SUBSTRUCTURE
     1 AIA         1 TEMP              0 ****  ****    0 ROOT
