@<TRIPOS>MOLECULE
AIC
   44    43     1     0     0
SMALL
bcc


@<TRIPOS>ATOM
      1 C8          0.5470    2.8150    0.3390 c2        1 AIC     -0.184000
      2 C5          1.5400    0.8190    1.4760 c3        1 AIC     -0.133000
      3 C6          5.5390   -6.8080   -0.5710 c3        1 AIC     -0.309000
      4 N1          2.3260   -3.0750    0.8270 n         1 AIC     -0.291000
      5 N3          5.3160   -4.5460    0.0710 n         1 AIC     -0.048000
      6 C4          2.6040    0.5460    0.3900 c3        1 AIC     -0.105000
      7 C3          1.8510   -2.9420    2.1220 c2        1 AIC      0.248000
      8 C7          0.4190    1.6140    0.9000 c2        1 AIC     -0.193000
      9 C9          2.1550    2.4790    4.7860 c1        1 AIC      0.452000
     10 C10         1.5440    2.0310    3.6860 c2        1 AIC     -0.516000
     11 C11         2.2110    1.3690    2.6550 c1        1 AIC     -0.123000
     12 C12         6.1080   -5.4040   -0.5030 c2        1 AIC      0.012000
     13 C13         4.0120   -5.0570    0.4240 cv        1 AIC     -0.613000
     14 C14         3.5380   -3.6740    0.5710 cv        1 AIC     -0.243000
     15 C15         4.7790   -3.0800    0.2760 cv        1 AIC      0.345000
     16 N2          3.8900    0.0990    0.9890 n4        1 AIC     -0.069000
     17 O3          0.7740   -2.3580    2.3330 o         1 AIC     -0.374000
     18 O4          5.4470   -2.0490    0.2080 o         1 AIC     -0.403000
     19 S1          3.8200   -6.6090    0.1720 s4        1 AIC      1.115000
     20 HC8        -0.3190    3.3600   -0.0630 ha        1 AIC      0.127000
     21 HN1         3.8420   -0.8940    1.2450 hn        1 AIC      0.264333
     22 HC4         2.8020    1.4910   -0.1910 hx        1 AIC      0.137000
     23 HC1         6.1990   -7.3380    1.4360 hc        1 AIC      0.103167
     24 HC2         7.3160   -7.8430    0.0980 hc        1 AIC      0.103167
     25 HC3         5.7710   -8.7470    0.3670 hc        1 AIC      0.103167
     26 HC7        -0.5700    1.1290    0.9790 ha        1 AIC      0.150000
     27 HC9         1.5060    3.3420    0.2420 ha        1 AIC      0.127000
     28 HC01        0.4420    2.2160    3.6240 ha        1 AIC      0.200000
     29 HC11        1.1230   -0.1890    1.8210 hc        1 AIC      0.183000
     30 HC21        7.0850   -5.1540   -0.9510 h4        1 AIC      0.224000
     31 HC31        2.8960   -6.8290   -0.7030 hs        1 AIC     -0.236000
     32 HC41        1.6780   -3.0110    0.0700 hn        1 AIC      0.222000
     33 H161        5.2210   -8.3830   -2.0190 hc        1 AIC      0.103167
     34 H162        4.9310   -6.7050   -2.6540 hc        1 AIC      0.103167
     35 H163        6.6250   -7.2900   -2.3770 hc        1 AIC      0.103167
     36 HN21        2.2360   -0.2500   -0.3160 hx        1 AIC      0.137000
     37 HN22        4.0470    0.6580    1.8550 hn        1 AIC      0.264333
     38 C2          9.6540   -5.7540   -3.1910 c1        1 AIC      0.428000
     39 O1         10.6430   -5.7020   -3.8420 o         1 AIC     -0.213500
     40 O2          8.6570   -5.8070   -2.5360 o         1 AIC     -0.213500
     41 C16         5.5760   -7.3230   -1.9840 c3        1 AIC     -0.203000
     42 H12         2.5170   -3.3290    2.9260 h5        1 AIC      0.151000
     43 H23         4.6660    0.2090    0.3310 hn        1 AIC      0.264333
     44 C1          6.2410   -7.7340    0.3920 c3        1 AIC     -0.203000
@<TRIPOS>BOND
     1    1    8 1
     2    1   20 1
     3    1   27 1
     4    2    6 1
     5    2    8 1
     6    2   11 1
     7    2   29 1
     8    3   12 1
     9    3   19 1
    10    3   41 1
    11    3   44 1
    12    4    7 1
    13    4   14 1
    14    4   32 1
    15    5   12 1
    16    5   13 1
    17    5   15 1
    18    6   16 1
    19    6   22 1
    20    6   36 1
    21    7   17 1
    22    7   42 1
    23    8   26 1
    24    9   10 1
    25   10   11 1
    26   10   28 1
    27   12   30 1
    28   13   14 1
    29   13   19 1
    30   14   15 1
    31   15   18 1
    32   16   21 1
    33   16   37 1
    34   16   43 1
    35   19   31 1
    36   23   44 1
    37   24   44 1
    38   25   44 1
    39   33   41 1
    40   34   41 1
    41   35   41 1
    42   38   39 1
    43   38   40 1
@<TRIPOS>SUBSTRUCTURE
     1 AIC         1 TEMP              0 ****  ****    0 ROOT
