@<TRIPOS>MOLECULE
molecule
   37    37     1     0     0
SMALL
bcc


@<TRIPOS>ATOM
      1 C4           0.0000     0.0000     0.0000 c          1 AIF       0.745700
      2 C5           1.4160     0.0000     0.0000 cc         1 AIF      -0.403200
      3 C6           2.0800     0.0000     1.2090 cd         1 AIF       0.244200
      4 N1           1.3450    -0.0010     2.3810 ns         1 AIF      -0.460100
      5 N3          -0.6640    -0.0000     1.1720 ns         1 AIF      -0.557500
      6 N5           2.1310     0.0010    -1.2080 nz         1 AIF      -0.581400
      7 O4          -0.6130     0.0060    -1.0530 o          1 AIF      -0.701500
      8 O1P         11.5270     4.0920     4.4200 o          1 AIF      -0.687500
      9 P            9.9940     3.9820     4.8990 p5         1 AIF       1.195900
     10 O3P          9.9450     3.6580     6.4760 o          1 AIF      -0.687500
     11 O2P          9.3190     5.2750     4.6400 o          1 AIF      -0.687500
     12 C5'          7.8430     2.5530     4.2130 c3         1 AIF       0.205400
     13 C4'          7.4580     1.3810     3.3090 c3         1 AIF       0.116100
     14 O4'          8.1050     0.1930     3.7660 oh         1 AIF      -0.622800
     15 C3'          5.9420     1.1840     3.3480 c3         1 AIF       0.100100
     16 O3'          5.2930     2.3720     2.8890 oh         1 AIF      -0.574800
     17 C2'          5.5560     0.0120     2.4430 c3         1 AIF       0.071800
     18 O2'          6.0670     0.2360     1.1280 oh         1 AIF      -0.519800
     19 C1'          4.0550    -0.1070     2.3850 c2         1 AIF       0.351200
     20 N1'          3.4400    -0.0010     1.2500 nf         1 AIF      -0.624300
     21 C2          -0.0000    -0.0010     2.3410 c          1 AIF       0.812500
     22 HN1          1.8160    -0.0010     3.2640 hn         1 AIF       0.364500
     23 HN3         -1.6650    -0.0000     1.1720 hn         1 AIF       0.364500
     24 HN5          1.4890    -0.0180    -1.9750 hn         1 AIF       0.436467
     25 HN5A         2.6930     0.8270    -1.2630 hn         1 AIF       0.436467
     26 H5'          7.6140     2.3050     5.2420 h1         1 AIF       0.033700
     27 H5'A         7.2850     3.4340     3.9210 h1         1 AIF       0.033700
     28 H4'          7.7680     1.5930     2.2920 h1         1 AIF       0.063700
     29 HO4'         8.8380    -0.0020     3.2060 ho         1 AIF       0.415000
     30 H3'          5.8990     0.9970     4.4140 h1         1 AIF       0.070700
     31 HO3'         4.7000     2.6820     3.5530 ho         1 AIF       0.395000
     32 H2'          5.6540    -0.5950     3.3350 h1         1 AIF       0.101700
     33 HO2'         6.3210    -0.5870     0.7440 ho         1 AIF       0.387000
     34 H1'          3.6140    -0.4070     3.3280 h4         1 AIF      -0.032200
     35 O2          -0.6270    -0.0030     3.3830 o          1 AIF      -0.659500
     36 H53          2.7610    -0.7760    -1.2230 hn         1 AIF       0.436467
     37 O5'          9.2420     2.8130     4.0870 os         1 AIF      -0.584200
@<TRIPOS>BOND
     1     1     2 1
     2     1     5 1
     3     1     7 2
     4     2     3 2
     5     2     6 1
     6     3     4 1
     7     3    20 1
     8     4    21 1
     9     5    21 1
    10    35    21 2
    11     8     9 1
    12     9    10 1
    13     9    11 1
    14     9    37 1
    15    37    12 1
    16    12    13 1
    17    13    14 1
    18    13    15 1
    19    15    16 1
    20    15    17 1
    21    17    18 1
    22    17    19 1
    23    19    20 2
    24     4    22 1
    25     5    23 1
    26     6    24 1
    27     6    25 1
    28    12    26 1
    29    12    27 1
    30    13    28 1
    31    14    29 1
    32    15    30 1
    33    16    31 1
    34    17    32 1
    35    18    33 1
    36    19    34 1
    37    36     6 1
@<TRIPOS>SUBSTRUCTURE
     1 AIF         1 TEMP              0 ****  ****    0 ROOT
