@<TRIPOS>MOLECULE
AIF
   37    36     1     0     0
SMALL
bcc


@<TRIPOS>ATOM
      1 C4          0.1150    0.2170   -0.1450 c2        1 AIF      0.399000
      2 C5          1.4920    0.0210    0.2060 c2        1 AIF     -0.543000
      3 C6          1.9380   -0.1000    1.5880 c2        1 AIF      0.210000
      4 N1          0.9160   -0.1720    2.5600 n         1 AIF     -0.304000
      5 N3         -0.8030    0.2790    0.9110 n         1 AIF     -0.358000
      6 N5          2.4650   -0.0140   -0.8490 n4        1 AIF      0.084000
      7 O4         -0.2930    0.3300   -1.3310 o         1 AIF     -0.456000
      8 O1P        11.1450    3.8660    3.1070 o         1 AIF     -0.748500
      9 P          10.2080    4.1630    4.1860 p5        1 AIF      1.804000
     10 O3P         9.2950    2.7320    4.6350 os        1 AIF     -0.674000
     11 O2P        10.4110    5.0430    5.3320 o         1 AIF     -0.748500
     12 C5'         8.1550    3.1160    4.0480 c1        1 AIF      0.083000
     13 C4'         7.4940   -0.0320    3.8860 c3        1 AIF     -0.039000
     14 O4'         7.8410    0.0770    5.2480 oh        1 AIF     -0.340000
     15 C3'         6.0210    0.3370    3.6690 c3        1 AIF     -0.009000
     16 O3'         5.7130    1.6480    4.0820 oh        1 AIF     -0.380000
     17 C2'         5.6600    0.1800    2.1740 c3        1 AIF      0.026000
     18 O2'         5.7620    1.3940    1.4500 oh        1 AIF     -0.361000
     19 C1'         4.3190   -0.4620    2.0300 c1        1 AIF     -0.153000
     20 N1'         3.1990    0.1000    1.9150 n2        1 AIF     -0.214000
     21 C2         -0.4230    0.0960    2.2500 c2        1 AIF      0.407000
     22 HN1         1.1510   -0.2310    3.5260 hn        1 AIF      0.267000
     23 HN3        -1.7700    0.4120    0.7170 hn        1 AIF      0.261000
     24 HN5         3.1050    0.7830   -0.7660 hn        1 AIF      0.231333
     25 HN5A        1.9670    0.0320   -1.7460 hn        1 AIF      0.231333
     26 H5'         8.1470    0.6270    3.2520 h1        1 AIF      0.091000
     27 H5'A        6.0680    4.0690    3.0150 ha        1 AIF      0.001500
     28 H4'         5.4150    4.0790    2.8280 ha        1 AIF      0.001500
     29 HO4'        8.0380    1.0120    5.4160 ho        1 AIF      0.237000
     30 H3'         7.6560   -1.1100    3.6200 h1        1 AIF      0.091000
     31 HO3'        6.5380    2.1970    4.0500 ho        1 AIF      0.272000
     32 H2'         5.3690   -0.3390    4.2910 h1        1 AIF      0.110000
     33 HO2'        5.4990    2.1230    2.0350 ho        1 AIF      0.232000
     34 H1'         6.3940   -0.5120    1.6650 h1        1 AIF      0.122000
     35 O2         -1.2860    0.1320    3.1590 o         1 AIF     -0.393000
     36 H53         3.0100   -0.8780   -0.7890 hn        1 AIF      0.231333
     37 O5'         8.5630    4.2910    3.5710 os        1 AIF     -0.674000
@<TRIPOS>BOND
     1    1    2 1   
     2    1    5 1   
     3    1    7 1   
     4    2    3 1   
     5    2    6 1   
     6    3    4 1   
     7    3   20 1   
     8    4   21 1   
     9    4   22 1   
    10    5   21 1   
    11    5   23 1   
    12    6   24 1   
    13    6   25 1   
    14    6   36 1   
    15    8    9 1   
    16    9   10 1   
    17    9   11 1   
    18    9   37 1   
    19   10   12 1   
    20   12   37 1   
    21   13   14 1   
    22   13   15 1   
    23   13   26 1   
    24   13   30 1   
    25   14   29 1   
    26   15   16 1   
    27   15   17 1   
    28   15   32 1   
    29   16   31 1   
    30   17   18 1   
    31   17   19 1   
    32   17   34 1   
    33   18   33 1   
    34   19   20 1   
    35   21   35 1   
    36   27   28 1   
@<TRIPOS>SUBSTRUCTURE
     1 AIF         1 TEMP              0 ****  ****    0 ROOT
