@<TRIPOS>MOLECULE
molecule
   65    69     1     0     0
SMALL
bcc


@<TRIPOS>ATOM
      1 C1           0.0000     0.0000     0.0000 c3         1 AIH       0.028700
      2 C2           1.5380     0.0000     0.0000 c3         1 AIH       0.192400
      3 O3           1.9970     0.0000     1.3350 os         1 AIH      -0.292900
      4 C4           1.7180     1.1430     2.0000 ca         1 AIH       0.105100
      5 C5           2.6200     1.4840     3.0130 ca         1 AIH      -0.131000
      6 C6           2.4340     2.6090     3.7840 ca         1 AIH      -0.131000
      7 C7           1.3350     3.4270     3.5650 ca         1 AIH       0.089100
      8 O8           1.1400     4.5330     4.3330 oh         1 AIH      -0.516100
      9 C9           0.4410     3.1080     2.5600 ca         1 AIH      -0.111000
     10 C10          0.6360     1.9780     1.7690 ca         1 AIH      -0.023100
     11 S11         -0.5190     1.6780     0.4650 ss         1 AIH      -0.229000
     12 C12         -0.5150    -0.9970     1.0060 ca         1 AIH      -0.092300
     13 C13         -0.5150    -0.6810     2.3520 ca         1 AIH      -0.100500
     14 C14         -0.9860    -1.5940     3.2760 ca         1 AIH      -0.154000
     15 C15         -1.4600    -2.8270     2.8530 ca         1 AIH       0.108100
     16 O16         -1.9240    -3.7260     3.7600 oh         1 AIH      -0.522100
     17 C17         -1.4590    -3.1410     1.5010 ca         1 AIH      -0.154000
     18 C18         -0.9920    -2.2230     0.5810 ca         1 AIH      -0.100500
     19 C19          2.0420    -1.2320    -0.7080 ca         1 AIH      -0.132300
     20 C20          2.4750    -1.1460    -2.0190 ca         1 AIH      -0.067500
     21 C21          2.9370    -2.2730    -2.6690 ca         1 AIH      -0.195500
     22 C22          2.9690    -3.4910    -2.0070 ca         1 AIH       0.127100
     23 C23          2.5300    -3.5750    -0.6940 ca         1 AIH      -0.195500
     24 C24          2.0730    -2.4440    -0.0450 ca         1 AIH      -0.067500
     25 O25          3.4240    -4.6020    -2.6440 os         1 AIH      -0.299900
     26 C26          3.3340    -5.6800    -1.7110 c3         1 AIH       0.110400
     27 C27          3.8340    -6.9680    -2.3700 c3         1 AIH       0.130800
     28 N28          5.2650    -6.8370    -2.6760 n3         1 AIH      -0.670600
     29 C29          5.6270    -7.9970    -3.5200 c3         1 AIH       0.133800
     30 C30          6.5640    -7.4760    -4.6250 c3         1 AIH      -0.081200
     31 C31          7.9370    -8.1410    -4.5130 c3         1 AIH      -0.083600
     32 C32          6.6820    -5.9550    -4.3740 c3         1 AIH      -0.081200
     33 C33          6.6750    -5.1790    -5.6920 c3         1 AIH      -0.083600
     34 C34          5.4080    -5.6430    -3.5460 c3         1 AIH       0.133800
     35 H1          -0.3690    -0.2390    -0.9900 h1         1 AIH       0.106700
     36 H2           1.8980     0.8880    -0.5050 h1         1 AIH       0.069700
     37 H5           3.4820     0.8520     3.1920 ha         1 AIH       0.150000
     38 H6           3.1420     2.8520     4.5670 ha         1 AIH       0.146000
     39 HO8          1.5870     5.2670     3.9460 ho         1 AIH       0.419000
     40 H9          -0.4190     3.7430     2.3850 ha         1 AIH       0.154000
     41 H13         -0.1440     0.2810     2.6830 ha         1 AIH       0.145000
     42 H14         -0.9860    -1.3470     4.3310 ha         1 AIH       0.142000
     43 H16         -1.2010    -4.2170     4.1140 ho         1 AIH       0.418000
     44 H17         -1.8310    -4.1020     1.1670 ha         1 AIH       0.142000
     45 H18         -0.9910    -2.4680    -0.4740 ha         1 AIH       0.145000
     46 H20          2.4500    -0.1940    -2.5360 ha         1 AIH       0.143500
     47 H21          3.2780    -2.2050    -3.6960 ha         1 AIH       0.145500
     48 H23          2.5540    -4.5260    -0.1740 ha         1 AIH       0.145500
     49 H24          1.7300    -2.5090     0.9810 ha         1 AIH       0.143500
     50 H261         3.9420    -5.4590    -0.8430 h1         1 AIH       0.051700
     51 H262         2.3020    -5.8080    -1.4060 h1         1 AIH       0.051700
     52 H271         3.6830    -7.8010    -1.6950 h1         1 AIH       0.048200
     53 H272         3.2830    -7.1420    -3.2870 h1         1 AIH       0.048200
     54 H291         6.1400    -8.7410    -2.9230 h1         1 AIH       0.051450
     55 H292         4.7350    -8.4220    -3.9640 h1         1 AIH       0.051450
     56 H30          6.1300    -7.6600    -5.6000 hc         1 AIH       0.059700
     57 H311         7.8340    -9.2100    -4.6590 hc         1 AIH       0.035533
     58 H312         8.5980    -7.7360    -5.2700 hc         1 AIH       0.035533
     59 H313         8.3530    -7.9500    -3.5310 hc         1 AIH       0.035533
     60 H32          7.5720    -5.7340    -3.7980 hc         1 AIH       0.059700
     61 H331         6.6900    -4.1160    -5.4850 hc         1 AIH       0.035533
     62 H332         5.7820    -5.4260    -6.2520 hc         1 AIH       0.035533
     63 H333         7.5500    -5.4460    -6.2730 hc         1 AIH       0.035533
     64 H341         4.5480    -5.5400    -4.1970 h1         1 AIH       0.051450
     65 H342         5.5520    -4.7510    -2.9480 h1         1 AIH       0.051450
@<TRIPOS>BOND
     1     1     2 1
     2     1    11 1
     3     1    12 1
     4     1    35 1
     5     2     3 1
     6     2    19 1
     7     2    36 1
     8     3     4 1
     9     4     5 ar
    10     4    10 ar
    11     5     6 ar
    12     5    37 1
    13     6     7 ar
    14     6    38 1
    15     7     8 1
    16     7     9 ar
    17     8    39 1
    18     9    10 ar
    19     9    40 1
    20    10    11 1
    21    12    13 ar
    22    12    18 ar
    23    13    14 ar
    24    13    41 1
    25    14    15 ar
    26    14    42 1
    27    15    16 1
    28    15    17 ar
    29    16    43 1
    30    17    18 ar
    31    17    44 1
    32    18    45 1
    33    19    20 ar
    34    19    24 ar
    35    20    21 ar
    36    20    46 1
    37    21    22 ar
    38    21    47 1
    39    22    23 ar
    40    22    25 1
    41    23    24 ar
    42    23    48 1
    43    24    49 1
    44    25    26 1
    45    26    27 1
    46    26    50 1
    47    26    51 1
    48    27    28 1
    49    27    52 1
    50    27    53 1
    51    28    29 1
    52    28    34 1
    53    29    30 1
    54    29    54 1
    55    29    55 1
    56    30    31 1
    57    30    32 1
    58    30    56 1
    59    31    57 1
    60    31    58 1
    61    31    59 1
    62    32    33 1
    63    32    34 1
    64    32    60 1
    65    33    61 1
    66    33    62 1
    67    33    63 1
    68    34    64 1
    69    34    65 1
@<TRIPOS>SUBSTRUCTURE
     1 AIH         1 TEMP              0 ****  ****    0 ROOT
