@<TRIPOS>MOLECULE
molecule
   62    66     1     0     0
SMALL
bcc


@<TRIPOS>ATOM
      1 C1           0.0000     0.0000     0.0000 c3         1 AIJ       0.030700
      2 C2           1.5380     0.0000     0.0000 c3         1 AIJ       0.193400
      3 O3           1.9960     0.0000     1.3360 os         1 AIJ      -0.290900
      4 C4           1.7170     1.1430     2.0010 ca         1 AIJ       0.106100
      5 C5           2.6200     1.4840     3.0140 ca         1 AIJ      -0.130000
      6 C6           2.4330     2.6100     3.7840 ca         1 AIJ      -0.132000
      7 C7           1.3340     3.4280     3.5650 ca         1 AIJ       0.088100
      8 O8           1.1380     4.5340     4.3320 oh         1 AIJ      -0.517100
      9 C9           0.4390     3.1090     2.5600 ca         1 AIJ      -0.110000
     10 C10          0.6350     1.9780     1.7700 ca         1 AIJ      -0.023100
     11 S11         -0.5190     1.6800     0.4650 ss         1 AIJ      -0.234000
     12 C12         -0.5160    -0.9960     1.0060 ca         1 AIJ      -0.091300
     13 C13         -0.5160    -0.6810     2.3530 ca         1 AIJ      -0.101000
     14 C14         -0.9870    -1.5930     3.2760 ca         1 AIJ      -0.154000
     15 C15         -1.4610    -2.8270     2.8520 ca         1 AIJ       0.107100
     16 O16         -1.9250    -3.7250     3.7590 oh         1 AIJ      -0.524100
     17 C17         -1.4600    -3.1410     1.5010 ca         1 AIJ      -0.154000
     18 C18         -0.9920    -2.2230     0.5800 ca         1 AIJ      -0.101000
     19 C19          2.0430    -1.2310    -0.7070 ca         1 AIJ      -0.137300
     20 C20          2.4750    -1.1450    -2.0180 ca         1 AIJ      -0.067000
     21 C21          2.9390    -2.2720    -2.6680 ca         1 AIJ      -0.198000
     22 C22          2.9700    -3.4910    -2.0050 ca         1 AIJ       0.131100
     23 C23          2.5290    -3.5750    -0.6920 ca         1 AIJ      -0.198000
     24 C24          2.0730    -2.4430    -0.0440 ca         1 AIJ      -0.067000
     25 O25          3.4250    -4.6010    -2.6430 os         1 AIJ      -0.274900
     26 C26          3.3340    -5.6800    -1.7100 c3         1 AIJ       0.119400
     27 C27          3.8340    -6.9670    -2.3690 c3         1 AIJ       0.140500
     28 C28          5.2480    -6.7470    -2.9100 c3         1 AIJ      -0.090100
     29 N29          2.9380    -7.3320    -3.4740 n3         1 AIJ      -0.663600
     30 C30          3.4740    -8.5740    -4.0620 c3         1 AIJ       0.130800
     31 C31          2.4230    -9.6800    -3.8310 c3         1 AIJ      -0.099400
     32 C32          1.1100    -8.8770    -3.6300 c3         1 AIJ      -0.099400
     33 C33          1.6200    -7.6270    -2.8730 c3         1 AIJ       0.130800
     34 H1          -0.3690    -0.2390    -0.9900 h1         1 AIJ       0.106700
     35 H2           1.8980     0.8880    -0.5050 h1         1 AIJ       0.069700
     36 H5           3.4810     0.8520     3.1940 ha         1 AIJ       0.151000
     37 H6           3.1280     2.8400     4.5820 ha         1 AIJ       0.146000
     38 HO8          1.6170     5.2590     3.9660 ho         1 AIJ       0.419000
     39 H9          -0.4200     3.7450     2.3850 ha         1 AIJ       0.154000
     40 H13         -0.1460     0.2820     2.6830 ha         1 AIJ       0.145500
     41 H14         -0.9870    -1.3460     4.3310 ha         1 AIJ       0.142000
     42 H16         -2.8440    -3.5740     3.9100 ho         1 AIJ       0.420000
     43 H17         -1.8310    -4.1020     1.1670 ha         1 AIJ       0.142000
     44 H18         -0.9900    -2.4670    -0.4750 ha         1 AIJ       0.145500
     45 H20          2.4500    -0.1940    -2.5340 ha         1 AIJ       0.143500
     46 H21          3.2800    -2.2040    -3.6940 ha         1 AIJ       0.146500
     47 H23          2.5530    -4.5250    -0.1720 ha         1 AIJ       0.146500
     48 H24          1.7290    -2.5090     0.9810 ha         1 AIJ       0.143500
     49 H261         2.3020    -5.8080    -1.4050 h1         1 AIJ       0.044700
     50 H262         3.9420    -5.4590    -0.8410 h1         1 AIJ       0.044700
     51 H27          3.8480    -7.7650    -1.6370 h1         1 AIJ       0.036700
     52 H281         5.6100    -5.7770    -2.5910 hc         1 AIJ       0.045367
     53 H282         5.2310    -6.7890    -3.9920 hc         1 AIJ       0.045367
     54 H283         5.9050    -7.5200    -2.5290 hc         1 AIJ       0.045367
     55 H301         3.6360    -8.4370    -5.1240 h1         1 AIJ       0.048700
     56 H302         4.4030    -8.8410    -3.5720 h1         1 AIJ       0.048700
     57 H311         2.6600   -10.2510    -2.9420 hc         1 AIJ       0.051200
     58 H312         2.3480   -10.3220    -4.7000 hc         1 AIJ       0.051200
     59 H321         0.6770    -8.6010    -4.5840 hc         1 AIJ       0.051200
     60 H322         0.4060    -9.4350    -3.0240 hc         1 AIJ       0.051200
     61 H331         1.7290    -7.8450    -1.8170 h1         1 AIJ       0.048700
     62 H332         0.9440    -6.7940    -3.0240 h1         1 AIJ       0.048700
@<TRIPOS>BOND
     1     1     2 1
     2     1    11 1
     3     1    12 1
     4     1    34 1
     5     2     3 1
     6     2    19 1
     7     2    35 1
     8     3     4 1
     9     4     5 ar
    10     4    10 ar
    11     5     6 ar
    12     5    36 1
    13     6     7 ar
    14     6    37 1
    15     7     8 1
    16     7     9 ar
    17     8    38 1
    18     9    10 ar
    19     9    39 1
    20    10    11 1
    21    12    13 ar
    22    12    18 ar
    23    13    14 ar
    24    13    40 1
    25    14    15 ar
    26    14    41 1
    27    15    16 1
    28    15    17 ar
    29    16    42 1
    30    17    18 ar
    31    17    43 1
    32    18    44 1
    33    19    20 ar
    34    19    24 ar
    35    20    21 ar
    36    20    45 1
    37    21    22 ar
    38    21    46 1
    39    22    23 ar
    40    22    25 1
    41    23    24 ar
    42    23    47 1
    43    24    48 1
    44    25    26 1
    45    26    27 1
    46    26    49 1
    47    26    50 1
    48    27    28 1
    49    27    29 1
    50    27    51 1
    51    28    52 1
    52    28    53 1
    53    28    54 1
    54    29    30 1
    55    29    33 1
    56    30    31 1
    57    30    55 1
    58    30    56 1
    59    31    32 1
    60    31    57 1
    61    31    58 1
    62    32    33 1
    63    32    59 1
    64    32    60 1
    65    33    61 1
    66    33    62 1
@<TRIPOS>SUBSTRUCTURE
     1 AIJ         1 TEMP              0 ****  ****    0 ROOT
