@<TRIPOS>MOLECULE
molecule
   72    74     1     0     0
SMALL
bcc


@<TRIPOS>ATOM
      1 C14          0.0000     0.0000     0.0000 cc         1 AIK      -0.159000
      2 C10          1.4010     0.0000     0.0000 cc         1 AIK      -0.022400
      3 N9           2.2320    -0.0010    -1.1360 ns         1 AIK      -0.437100
      4 C8           1.6860    -0.0020    -2.3680 c          1 AIK       0.716700
      5 C6           2.5460    -0.1230    -3.5500 cc         1 AIK      -0.190900
      6 C7           3.9250    -0.1450    -3.5560 cd         1 AIK      -0.157000
      7 C3           4.3300    -0.2740    -4.8910 cd         1 AIK      -0.034400
      8 N2           5.6580    -0.3390    -5.3530 ns         1 AIK      -0.459100
      9 C1           6.6790    -0.2760    -4.4760 c          1 AIK       0.661900
     10 O1           6.4540    -0.1640    -3.2890 o          1 AIK      -0.610100
     11 C4           3.2110    -0.3260    -5.6600 cc         1 AIK      -0.177300
     12 N5           2.1220    -0.2390    -4.8540 na         1 AIK      -0.001100
     13 C5           0.7260    -0.2580    -5.2990 c3         1 AIK       0.038600
     14 O8           0.4810     0.0990    -2.5000 o          1 AIK      -0.633100
     15 C11          1.8160     0.0000     1.2940 cd         1 AIK      -0.170300
     16 N12          0.7250     0.0070     2.1030 na         1 AIK       0.000900
     17 C12          0.7470     0.0090     3.5680 c3         1 AIK       0.036600
     18 C13         -0.4060     0.0010     1.3190 cd         1 AIK      -0.196900
     19 C15         -1.7910     0.0020     1.7960 c          1 AIK       0.705700
     20 O15         -2.0240     0.0970     2.9870 o          1 AIK      -0.566100
     21 N16         -2.8070    -0.1030     0.9180 ns         1 AIK      -0.506400
     22 C17         -4.1120    -0.2090     1.3770 cc         1 AIK       0.613300
     23 N21         -4.5580    -0.2250     2.6160 nd         1 AIK      -0.705000
     24 C20         -5.8690    -0.3300     2.8470 cd         1 AIK       0.300800
     25 C25         -6.3850    -0.3470     4.2260 c          1 AIK       0.600600
     26 O25         -7.5810    -0.4420     4.4260 o          1 AIK      -0.631100
     27 N26         -5.5330    -0.2600     5.2650 ns         1 AIK      -0.563900
     28 C27         -6.0480    -0.2790     6.6370 c3         1 AIK       0.110000
     29 C28         -4.8800    -0.1650     7.6210 c3         1 AIK      -0.101400
     30 C29         -5.4170    -0.1860     9.0540 c3         1 AIK       0.137800
     31 N30         -4.2970    -0.0770     9.9970 n3         1 AIK      -0.672600
     32 C32         -4.8770    -0.1010    11.3460 c3         1 AIK       0.122100
     33 C31         -3.5050    -1.3050     9.8560 c3         1 AIK       0.122100
     34 C19         -6.7260    -0.4290     1.7830 cc         1 AIK      -0.040700
     35 C22         -8.2270    -0.5590     1.7780 c3         1 AIK      -0.004400
     36 C23         -8.8400     0.6260     1.0320 c3         1 AIK      -0.086600
     37 C24         -8.6230    -1.8610     1.0780 c3         1 AIK      -0.086600
     38 S18         -5.6260    -0.3580     0.4410 ss         1 AIK      -0.272300
     39 H14         -0.6430    -0.0040    -0.8720 ha         1 AIK       0.186000
     40 H9           3.2250     0.0520    -1.0290 hn         1 AIK       0.334500
     41 H7           4.5640    -0.2300    -2.6850 ha         1 AIK       0.188000
     42 H2           5.8440    -0.4110    -6.3340 hn         1 AIK       0.321500
     43 H1           7.7020    -0.3260    -4.8310 h5         1 AIK       0.030200
     44 H4           3.1910    -0.4250    -6.7390 h4         1 AIK       0.167000
     45 H51          0.2120    -1.0940    -4.8410 h1         1 AIK       0.060367
     46 H52          0.6920    -0.3600    -6.3770 h1         1 AIK       0.060367
     47 H53          0.2420     0.6670    -5.0090 h1         1 AIK       0.060367
     48 H11          2.8470    -0.0000     1.6260 h4         1 AIK       0.172000
     49 H121         0.2680     0.9080     3.9350 h1         1 AIK       0.062033
     50 H122         0.2160    -0.8600     3.9380 h1         1 AIK       0.062033
     51 H123         1.7730    -0.0210     3.9140 h1         1 AIK       0.062033
     52 H16         -2.6230    -0.0820    -0.0650 hn         1 AIK       0.351500
     53 H26         -4.5530    -0.1430     5.1000 hn         1 AIK       0.344500
     54 H271        -6.5780    -1.2070     6.8110 h1         1 AIK       0.050200
     55 H272        -6.7240     0.5560     6.7810 h1         1 AIK       0.050200
     56 H281        -4.3500     0.7630     7.4460 hc         1 AIK       0.056700
     57 H282        -4.2040    -1.0000     7.4760 hc         1 AIK       0.056700
     58 H291        -6.0930     0.6490     9.1980 h1         1 AIK       0.038700
     59 H292        -5.9470    -1.1140     9.2280 h1         1 AIK       0.038700
     60 H321        -5.4950     0.7780    11.4900 h1         1 AIK       0.034867
     61 H322        -5.4830    -0.9910    11.4630 h1         1 AIK       0.034867
     62 H323        -4.0820    -0.1070    12.0820 h1         1 AIK       0.034867
     63 H311        -4.1690    -2.1450     9.6930 h1         1 AIK       0.034867
     64 H312        -2.8330    -1.2070     9.0120 h1         1 AIK       0.034867
     65 H313        -2.9290    -1.4690    10.7590 h1         1 AIK       0.034867
     66 H22         -8.5920    -0.5720     2.7980 hc         1 AIK       0.126700
     67 H231        -8.3680     0.7250     0.0620 hc         1 AIK       0.037867
     68 H232        -8.6830     1.5330     1.6040 hc         1 AIK       0.037867
     69 H233        -9.9020     0.4610     0.9020 hc         1 AIK       0.037867
     70 H241        -9.6670    -2.0730     1.2740 hc         1 AIK       0.037867
     71 H242        -8.4700    -1.7580     0.0100 hc         1 AIK       0.037867
     72 H243        -8.0130    -2.6740     1.4540 hc         1 AIK       0.037867
@<TRIPOS>BOND
     1     1     2 1
     2     1    18 2
     3     1    39 1
     4     2     3 1
     5     2    15 2
     6     3     4 1
     7     3    40 1
     8     4     5 1
     9     4    14 2
    10     5     6 2
    11     5    12 1
    12     6     7 1
    13     6    41 1
    14     7     8 1
    15     7    11 2
    16     8     9 1
    17     8    42 1
    18     9    10 2
    19     9    43 1
    20    11    12 1
    21    11    44 1
    22    12    13 1
    23    13    45 1
    24    13    46 1
    25    13    47 1
    26    15    16 1
    27    15    48 1
    28    16    17 1
    29    16    18 1
    30    17    49 1
    31    17    50 1
    32    17    51 1
    33    18    19 1
    34    19    20 2
    35    19    21 1
    36    21    22 1
    37    21    52 1
    38    22    23 2
    39    22    38 1
    40    23    24 1
    41    24    25 1
    42    24    34 2
    43    25    26 2
    44    25    27 1
    45    27    28 1
    46    27    53 1
    47    28    29 1
    48    28    54 1
    49    28    55 1
    50    29    30 1
    51    29    56 1
    52    29    57 1
    53    30    31 1
    54    30    58 1
    55    30    59 1
    56    31    32 1
    57    31    33 1
    58    32    60 1
    59    32    61 1
    60    32    62 1
    61    33    63 1
    62    33    64 1
    63    33    65 1
    64    34    35 1
    65    34    38 1
    66    35    36 1
    67    35    37 1
    68    35    66 1
    69    36    67 1
    70    36    68 1
    71    36    69 1
    72    37    70 1
    73    37    71 1
    74    37    72 1
@<TRIPOS>SUBSTRUCTURE
     1 AIK         1 TEMP              0 ****  ****    0 ROOT
