@<TRIPOS>MOLECULE
molecule
   39    41     1     0     0
SMALL
bcc


@<TRIPOS>ATOM
      1 C1           0.0000     0.0000     0.0000 c3         1 AIL       0.151800
      2 N2           1.4690     0.0000     0.0000 n7         1 AIL      -0.771200
      3 C3           1.8640     0.0000     1.4160 c3         1 AIL       0.072500
      4 C4           0.6940     0.5750     2.2090 c3         1 AIL      -0.092400
      5 C5          -0.3490     0.9280     1.1510 c3         1 AIL      -0.140700
      6 C6          -1.7810     0.7720     1.6350 c3         1 AIL       0.123000
      7 C7           2.1480    -1.4220     1.7860 c          1 AIL       0.696100
      8 O8           1.5390    -2.3390     1.2320 o          1 AIL      -0.563100
      9 N9           3.1130    -1.6080     2.7690 n          1 AIL      -0.514800
     10 C10          3.4770    -2.9440     3.2230 c3         1 AIL       0.094000
     11 C11          4.0130    -2.8440     4.6390 c3         1 AIL       0.001700
     12 S12          4.9520    -1.3000     4.6370 ss         1 AIL      -0.330200
     13 C13          3.9350    -0.5500     3.3420 c3         1 AIL       0.202100
     14 N14         -2.0040     1.6200     2.7570 ns         1 AIL      -0.577900
     15 C15         -2.4580     2.9360     2.6430 c          1 AIL       0.594600
     16 O16         -2.7100     3.4880     1.5750 o          1 AIL      -0.596100
     17 N17         -2.3110     3.0800     5.0770 nc         1 AIL      -0.617000
     18 C18         -2.5280     3.9480     6.0410 cd         1 AIL       0.384300
     19 S19         -3.0930     5.4960     5.5610 ss         1 AIL      -0.117300
     20 C20         -3.0480     4.9790     3.9260 cd         1 AIL      -0.139400
     21 C21         -2.6150     3.6980     3.9090 cc         1 AIL       0.267800
     22 H11         -0.3800     0.3940    -0.9350 h1         1 AIL       0.070200
     23 H12         -0.3800    -0.9970     0.1860 h1         1 AIL       0.070200
     24 HN2          1.8030     0.8350    -0.4400 hn         1 AIL       0.352800
     25 H3           2.7470     0.6130     1.5550 h1         1 AIL       0.061700
     26 H41          0.3010    -0.1680     2.8920 hc         1 AIL       0.055700
     27 H42          1.0030     1.4650     2.7440 hc         1 AIL       0.055700
     28 H5          -0.1910     1.9520     0.8340 hc         1 AIL       0.062700
     29 H61         -1.9540    -0.2580     1.9220 h1         1 AIL       0.060200
     30 H62         -2.4620     1.0440     0.8380 h1         1 AIL       0.060200
     31 H101         4.2420    -3.3520     2.5730 h1         1 AIL       0.067700
     32 H102         2.6020    -3.5830     3.2100 h1         1 AIL       0.067700
     33 H111         3.1980    -2.7910     5.3490 h1         1 AIL       0.081700
     34 H112         4.6630    -3.6830     4.8570 h1         1 AIL       0.081700
     35 H131         4.5720    -0.1240     2.5760 h2         1 AIL       0.064200
     36 H132         3.3020     0.2170     3.7700 h2         1 AIL       0.064200
     37 HN14        -1.8270     1.2550     3.6720 hn         1 AIL       0.333500
     38 H20         -3.3190     5.5730     3.0620 h4         1 AIL       0.207000
     39 H18         -2.3600     3.6990     7.0820 h5         1 AIL       0.054100
@<TRIPOS>BOND
     1     1     2 1
     2     1     5 1
     3     1    22 1
     4     1    23 1
     5     2     3 1
     6     2    24 1
     7     3     7 1
     8     3     4 1
     9     3    25 1
    10     4     5 1
    11     4    26 1
    12     4    27 1
    13     5     6 1
    14     5    28 1
    15     6    14 1
    16     6    29 1
    17     6    30 1
    18     7     9 1
    19     7     8 2
    20     9    10 1
    21     9    13 1
    22    10    11 1
    23    10    31 1
    24    10    32 1
    25    11    12 1
    26    11    33 1
    27    11    34 1
    28    12    13 1
    29    13    35 1
    30    13    36 1
    31    14    15 1
    32    14    37 1
    33    15    21 1
    34    15    16 2
    35    17    21 1
    36    17    18 2
    37    18    19 1
    38    18    39 1
    39    19    20 1
    40    20    21 2
    41    20    38 1
@<TRIPOS>SUBSTRUCTURE
     1 AIL         1 TEMP              0 ****  ****    0 ROOT
