@<TRIPOS>MOLECULE
molecule
   29    30     1     0     0
SMALL
bcc


@<TRIPOS>ATOM
      1 C01          0.0000     0.0000     0.0000 c3         1 AIM      -0.101900
      2 C02          1.5290     0.0000     0.0000 c3         1 AIM       0.092500
      3 C03          2.0470     0.0000     1.4400 c3         1 AIM      -0.101900
      4 C04          1.6140    -1.2940     2.1370 c3         1 AIM      -0.066200
      5 C05          0.1120    -1.4260     2.0150 c2         1 AIM       0.140600
      6 C06         -0.5100    -1.2930     0.6430 c3         1 AIM      -0.066200
      7 N20          2.0180     1.1970    -0.6950 nz         1 AIM      -0.807600
      8 C22         -0.6550    -1.6590     3.1070 cc         1 AIM       0.085000
      9 N23         -0.2370    -1.8070     4.4020 nc         1 AIM      -0.653000
     10 C24         -1.2940    -2.0150     5.1500 cd         1 AIM       0.655900
     11 N25         -2.4150    -2.0220     4.4160 nd         1 AIM      -0.688000
     12 C26         -2.1170    -1.8130     3.1550 cc         1 AIM       0.408900
     13 N27         -1.2570    -2.2070     6.5220 nz         1 AIM      -0.745300
     14 HC11        -0.3600     0.0610    -1.0200 hc         1 AIM       0.085450
     15 HC12        -0.3600     0.8500     0.5670 hc         1 AIM       0.085450
     16 HC21         1.8860    -0.8870    -0.5080 hx         1 AIM       0.124700
     17 HC31         3.1290     0.0610     1.4330 hc         1 AIM       0.085450
     18 HC32         1.6360     0.8500     1.9700 hc         1 AIM       0.085450
     19 HC41         1.8920    -1.2530     3.1830 hc         1 AIM       0.109700
     20 HC42         2.0930    -2.1410     1.6600 hc         1 AIM       0.109700
     21 HC61        -0.2240    -2.1400     0.0310 hc         1 AIM       0.109700
     22 HC62        -1.5880    -1.2510     0.7360 hc         1 AIM       0.109700
     23 HN11         3.0170     1.2310    -0.6380 hn         1 AIM       0.465133
     24 HN12         1.7400     1.1620    -1.6560 hn         1 AIM       0.465133
     25 H261        -2.6290    -2.3670     2.3780 h4         1 AIM       0.091100
     26 HN21        -0.6770    -2.9950     6.7320 hn         1 AIM       0.484467
     27 HN22        -2.1830    -2.3750     6.8610 hn         1 AIM       0.484467
     28 H203         1.6190     2.0130    -0.2760 hn         1 AIM       0.465133
     29 H273        -0.9020    -1.3820     6.9640 hn         1 AIM       0.484467
@<TRIPOS>BOND
     1     1     2 1
     2     1     6 1
     3     1    14 1
     4     1    15 1
     5     2     3 1
     6     2     7 1
     7     2    16 1
     8     3     4 1
     9     3    17 1
    10     3    18 1
    11     4     5 1
    12     4    19 1
    13     4    20 1
    14     5     6 1
    15     5     8 2
    16     6    21 1
    17     6    22 1
    18     7    23 1
    19     7    24 1
    20     8     9 1
    21     8    12 1
    22     9    10 2
    23    10    11 1
    24    10    13 1
    25    11    12 2
    26    12    25 1
    27    13    26 1
    28    13    27 1
    29    28     7 1
    30    29    13 1
@<TRIPOS>SUBSTRUCTURE
     1 AIM         1 TEMP              0 ****  ****    0 ROOT
