@<TRIPOS>MOLECULE
molecule
   20    20     1     0     0
SMALL
bcc


@<TRIPOS>ATOM
      1 O1           0.0000     0.0000     0.0000 o          1 AIN      -0.832800
      2 C7           1.3470     0.0000     0.0000 c          1 AIN       0.883200
      3 O2           1.9550     0.0000     1.0520 o          1 AIN      -0.832800
      4 C3           2.0850     0.0000    -1.2750 ca         1 AIN      -0.107600
      5 C4           1.3910     0.0010    -2.4880 ca         1 AIN      -0.081000
      6 C5           2.0860     0.0010    -3.6780 ca         1 AIN      -0.181000
      7 C6           3.4720     0.0070    -3.6780 ca         1 AIN      -0.138000
      8 C1           4.1690     0.0120    -2.4870 ca         1 AIN      -0.224000
      9 C2           3.4860     0.0120    -1.2800 ca         1 AIN       0.121100
     10 O3           4.1710     0.0180    -0.1100 os         1 AIN      -0.263200
     11 C8           5.5050    -0.1410    -0.1110 c          1 AIN       0.634100
     12 O4           6.0800    -0.4040    -1.1390 o          1 AIN      -0.577000
     13 C9           6.2830     0.0090     1.1710 c3         1 AIN      -0.138100
     14 H4           0.3080    -0.0030    -2.4930 ha         1 AIN       0.158000
     15 H5           1.5470    -0.0000    -4.6180 ha         1 AIN       0.104000
     16 H6           4.0100     0.0070    -4.6180 ha         1 AIN       0.104000
     17 H1           5.2520     0.0190    -2.4950 ha         1 AIN       0.181000
     18 H91          6.1510     1.0120     1.5580 hc         1 AIN       0.063367
     19 H92          5.9220    -0.7090     1.8980 hc         1 AIN       0.063367
     20 H93          7.3340    -0.1690     0.9780 hc         1 AIN       0.063367
@<TRIPOS>BOND
     1     1     2 1
     2     2     3 1
     3     2     4 1
     4     4     5 ar
     5     4     9 ar
     6     5     6 ar
     7     5    14 1
     8     6     7 ar
     9     6    15 1
    10     7     8 ar
    11     7    16 1
    12     8     9 ar
    13     8    17 1
    14     9    10 1
    15    10    11 1
    16    11    12 2
    17    11    13 1
    18    13    18 1
    19    13    19 1
    20    13    20 1
@<TRIPOS>SUBSTRUCTURE
     1 AIN         1 TEMP              0 ****  ****    0 ROOT
