@<TRIPOS>MOLECULE
AIN
   20    20     1     0     0
SMALL
bcc


@<TRIPOS>ATOM
      1 O1          0.8440   -0.4440    0.2960 o         1 AIN     -0.830800
      2 C7          2.0820   -0.3750    0.0660 c         1 AIN      0.922200
      3 O2          2.9730   -0.5190    0.9570 o         1 AIN     -0.830800
      4 C3          2.5350   -0.1050   -1.3580 ca        1 AIN     -0.136600
      5 C4          1.6310   -0.2670   -2.4130 ca        1 AIN     -0.094000
      6 C5          2.0140   -0.0300   -3.7320 ca        1 AIN     -0.172000
      7 C6          3.3170    0.3770   -4.0200 ca        1 AIN     -0.144000
      8 C1          4.2400    0.5450   -2.9920 ca        1 AIN     -0.165000
      9 C2          3.8400    0.3080   -1.6680 ca        1 AIN      0.149100
     10 O3          4.7550    0.6250   -0.6670 os        1 AIN     -0.389200
     11 C8          5.2310   -0.3970    0.1390 c         1 AIN      0.710100
     12 O4          5.3640   -1.5190   -0.3480 o         1 AIN     -0.560000
     13 C9          5.6690    0.1000    1.4730 c3        1 AIN     -0.147100
     14 H4          0.6030   -0.5790   -2.1650 ha        1 AIN      0.152000
     15 H5          1.2900   -0.1640   -4.5460 ha        1 AIN      0.106000
     16 H6          3.6190    0.5610   -5.0600 ha        1 AIN      0.104000
     17 H1          5.2690    0.8640   -3.2020 ha        1 AIN      0.121000
     18 H91         5.9780    1.1700    1.4150 hc        1 AIN      0.068367
     19 H92         6.5130   -0.5240    1.8460 hc        1 AIN      0.068367
     20 H93         4.7890    0.0080    2.1640 hc        1 AIN      0.068367
@<TRIPOS>BOND
     1    1    2 1   
     2    2    3 1   
     3    2    4 1   
     4    4    5 ar  
     5    4    9 ar  
     6    5    6 ar  
     7    5   14 1   
     8    6    7 ar  
     9    6   15 1   
    10    7    8 ar  
    11    7   16 1   
    12    8    9 ar  
    13    8   17 1   
    14    9   10 1   
    15   10   11 1   
    16   11   12 2   
    17   11   13 1   
    18   13   18 1   
    19   13   19 1   
    20   13   20 1   
@<TRIPOS>SUBSTRUCTURE
     1 AIN         1 TEMP              0 ****  ****    0 ROOT
