@<TRIPOS>MOLECULE
AIQ
   32    34     1     0     0
SMALL
bcc


@<TRIPOS>ATOM
      1 C1          0.0410    0.1090   -0.0420 ca        1 AIQ     -0.126000
      2 C2          1.4310    0.1110   -0.0280 ca        1 AIQ     -0.054300
      3 C9          2.1530    0.1890   -1.3180 c3        1 AIQ      0.048000
      4 C3          2.1260    0.0530    1.2160 ca        1 AIQ      0.189400
      5 N3          3.5190    0.0770    1.2460 nc        1 AIQ     -0.669100
      6 C8          4.1350   -0.0130    2.4310 cd        1 AIQ      0.655800
      7 N2          5.5500   -0.1210    2.4800 nh        1 AIQ     -0.881800
      8 N1          3.4480   -0.0670    3.6670 n         1 AIQ     -0.503400
      9 C7          2.0460   -0.0980    3.7010 c         1 AIQ      0.716100
     10 O1          1.4870   -0.1830    4.8090 o         1 AIQ     -0.623500
     11 C4          1.3510   -0.0190    2.4020 ca        1 AIQ     -0.168600
     12 C5         -0.0440   -0.0270    2.3760 ca        1 AIQ     -0.114000
     13 C6         -0.7250    0.0460    1.1490 ca        1 AIQ      0.106600
     14 N4         -2.1220    0.1440    1.1030 nh        1 AIQ     -0.811200
     15 S1          2.3190   -1.4920   -1.8920 ss        1 AIQ     -0.255400
     16 C10         3.1630   -1.3160   -3.3520 cc        1 AIQ      0.464800
     17 N5          3.3500   -0.1750   -4.0730 nd        1 AIQ     -0.680000
     18 N6          3.7820   -2.4060   -3.9870 na        1 AIQ     -0.296900
     19 C11         4.0950   -0.5410   -5.1870 cd        1 AIQ      0.300200
     20 C12         4.3650   -1.9230   -5.1560 cc        1 AIQ     -0.259600
     21 H11        -0.4760    0.1630   -1.0160 ha        1 AIQ      0.145000
     22 H91         1.5730    0.7860   -2.0670 h1        1 AIQ      0.096200
     23 H92         3.1580    0.6670   -1.2210 h1        1 AIQ      0.096200
     24 HN21        5.9890   -0.0220    1.5870 hn        1 AIQ      0.411800
     25 HN22        5.9780    0.4370    3.1880 hn        1 AIQ      0.411800
     26 HN11        3.9460   -0.1860    4.5210 hn        1 AIQ      0.336500
     27 H51        -0.5890   -0.0820    3.3330 ha        1 AIQ      0.160000
     28 HN41       -2.5220   -0.1750    0.2480 hn        1 AIQ      0.390300
     29 HN42       -2.5800   -0.2220    1.9090 hn        1 AIQ      0.390300
     30 HN61        3.7740   -3.3400   -3.6730 hn        1 AIQ      0.305700
     31 H111        4.3910    0.1890   -5.9390 h4        1 AIQ      0.041100
     32 H121        4.9020   -2.5670   -5.8480 h4        1 AIQ      0.177000
@<TRIPOS>BOND
     1    1    2 ar
     2    1   13 ar
     3    1   21 1
     4    2    3 1
     5    2    4 ar
     6    3   15 1
     7    3   22 1
     8    3   23 1
     9    4    5 1
    10    4   11 ar
    11    5    6 2
    12    6    7 1
    13    6    8 1
    14    7   24 1
    15    7   25 1
    16    8    9 1
    17    8   26 1
    18    9   10 2
    19    9   11 1
    20   11   12 ar
    21   12   13 ar
    22   12   27 1
    23   13   14 1
    24   14   28 1
    25   14   29 1
    26   15   16 1
    27   16   17 2
    28   16   18 1
    29   17   19 1
    30   18   20 1
    31   18   30 1
    32   19   20 2
    33   19   31 1
    34   20   32 1
@<TRIPOS>SUBSTRUCTURE
     1 AIQ         1 TEMP              0 ****  ****    0 ROOT
