@<TRIPOS>MOLECULE
AIR
   31    32     1     0     0
SMALL
bcc


@<TRIPOS>ATOM
      1 N1           0.0000     0.0000     0.0000 na         1 AIR       0.282100
      2 C2           1.3610     0.0000     0.0000 cc         1 AIR       0.265400
      3 N3           1.7780     0.0000     1.2360 nd         1 AIR      -0.652000
      4 C4           0.7220     0.0030     2.0630 cd         1 AIR       0.263200
      5 C5          -0.4020     0.0070     1.3090 cc         1 AIR      -0.309000
      6 N6          -1.7170     0.0110     1.7770 nv         1 AIR      -0.473200
      7 C1'         -0.8700    -0.0010    -1.1780 c3         1 AIR       0.120800
      8 C2'         -1.1600     1.4470    -1.6330 c3         1 AIR       0.112100
      9 C3'         -1.1740     1.3570    -3.1770 c3         1 AIR       0.123100
     10 C4'         -0.8940    -0.1330    -3.4690 c3         1 AIR       0.146100
     11 O4'         -0.1990    -0.6150    -2.3000 os         1 AIR      -0.345600
     12 O2'         -2.4290     1.8870    -1.1450 oh         1 AIR      -0.568800
     13 O3'         -2.4520     1.7370    -3.6900 oh         1 AIR      -0.565800
     14 C5'         -0.0110    -0.2780    -4.7100 c3         1 AIR       0.230400
     15 O5'          0.2930    -1.6570    -4.9200 os         1 AIR      -0.443200
     16 P            1.2190    -1.7360    -6.2340 p5         1 AIR       0.663900
     17 O6           1.6030    -3.2710    -6.5310 o          1 AIR      -0.760167
     18 O7           0.4180    -1.1310    -7.4920 o          1 AIR      -0.760167
     19 O8           2.4550    -0.9530    -6.0140 o          1 AIR      -0.760167
     20 HC2          1.9930    -0.0040    -0.8800 h5         1 AIR       0.054100
     21 HC4          0.7620     0.0060     3.1460 h4         1 AIR      -0.013900
     22 HN61        -2.3370    -0.7360     1.5330 hn         1 AIR       0.256800
     23 HN62        -2.0270     0.7370     2.3920 hn         1 AIR       0.256800
     24 HC1'        -1.7970    -0.5200    -0.9670 h2         1 AIR       0.041700
     25 HC2'        -0.3700     2.1100    -1.3020 h1         1 AIR       0.008700
     26 HC3'        -0.3910     1.9770    -3.5970 h1         1 AIR       0.025700
     27 HC4'        -1.8250    -0.6700    -3.5990 h1         1 AIR       0.029700
     28 HO'2        -2.4080     2.8200    -1.0120 ho         1 AIR       0.374000
     29 HO'3        -2.3640     2.5230    -4.2040 ho         1 AIR       0.374000
     30 HC51         0.9080     0.2760    -4.5660 h1         1 AIR       0.011200
     31 HC52        -0.5360     0.1110    -5.5740 h1         1 AIR       0.011200
@<TRIPOS>BOND
     1     1     2 1   
     2     1     5 1   
     3     1     7 1   
     4     2     3 2   
     5     2    20 1   
     6     3     4 1   
     7     4     5 2   
     8     4    21 1   
     9     5     6 1   
    10     6    22 1   
    11     6    23 1   
    12     7     8 1   
    13     7    11 1   
    14     7    24 1   
    15     8     9 1   
    16     8    12 1   
    17     8    25 1   
    18     9    10 1   
    19     9    13 1   
    20     9    26 1   
    21    10    11 1   
    22    10    14 1   
    23    10    27 1   
    24    12    28 1   
    25    13    29 1   
    26    14    15 1   
    27    14    30 1   
    28    14    31 1   
    29    15    16 1   
    30    16    17 1   
    31    16    18 1   
    32    16    19 1   
@<TRIPOS>SUBSTRUCTURE
     1 AIR         1 TEMP              0 ****  ****    0 ROOT
