@<TRIPOS>MOLECULE
molecule
   28    29     1     0     0
SMALL
bcc


@<TRIPOS>ATOM
      1 O2'          0.0000     0.0000     0.0000 oh         1 AIS      -0.572800
      2 C2'          1.4290     0.0000     0.0000 c3         1 AIS       0.080100
      3 C3'          1.9710     0.0000     1.4480 c3         1 AIS       0.083100
      4 O3'          0.8930     0.0030     2.3870 oh         1 AIS      -0.574800
      5 C4'          2.7780     1.3140     1.5470 c3         1 AIS       0.140100
      6 C5'          4.0300     1.1090     2.4040 c3         1 AIS       0.148400
      7 O5'          4.7370     2.3460     2.5170 oh         1 AIS      -0.595800
      8 O4'          3.1450     1.6250     0.1860 os         1 AIS      -0.393600
      9 C1'          1.9770     1.3130    -0.6040 c3         1 AIS       0.256800
     10 N1           2.3490     1.1120    -2.0060 na         1 AIS      -0.218900
     11 C2           3.5830     0.7850    -2.4780 cc         1 AIS       0.404400
     12 N3           3.5240     0.6950    -3.7780 nd         1 AIS      -0.690000
     13 C4           2.2710     0.9500    -4.1850 cd         1 AIS       0.283200
     14 C5           1.5170     1.2110    -3.0920 cc         1 AIS       0.026000
     15 N6           0.1570     1.5270    -3.0720 nv         1 AIS      -0.935200
     16 H1          -0.3140    -0.8880    -0.0300 ho         1 AIS       0.407000
     17 H2'          1.8130    -0.8540    -0.5450 h1         1 AIS       0.060700
     18 H3'          2.6190    -0.8530     1.6080 h1         1 AIS       0.047700
     19 H3           0.7600    -0.8710     2.7150 ho         1 AIS       0.404000
     20 H4'          2.1590     2.1030     1.9580 h1         1 AIS       0.089700
     21 H5'1         3.7410     0.7670     3.3900 h1         1 AIS       0.032200
     22 H5'2         4.6690     0.3690     1.9380 h1         1 AIS       0.032200
     23 H5'          5.5280     2.2110     3.0110 ho         1 AIS       0.406000
     24 H1'          1.2410     2.1020    -0.5130 h2         1 AIS       0.094700
     25 H2           4.4690     0.6290    -1.8740 h5         1 AIS       0.072100
     26 H4           1.9230     0.9460    -5.2110 h4         1 AIS       0.043100
     27 HN61        -0.5070     0.9040    -3.4860 hn         1 AIS       0.434300
     28 HN62        -0.1500     2.3900    -2.6690 hn         1 AIS       0.434300
@<TRIPOS>BOND
     1     1     2 1
     2     1    16 1
     3     2     3 1
     4     2     9 1
     5     2    17 1
     6     3     4 1
     7     3     5 1
     8     3    18 1
     9     4    19 1
    10     5     6 1
    11     5     8 1
    12     5    20 1
    13     6     7 1
    14     6    21 1
    15     6    22 1
    16     7    23 1
    17     8     9 1
    18     9    10 1
    19     9    24 1
    20    10    11 1
    21    10    14 1
    22    11    12 2
    23    11    25 1
    24    12    13 1
    25    13    14 2
    26    13    26 1
    27    14    15 1
    28    15    27 1
    29    15    28 1
@<TRIPOS>SUBSTRUCTURE
     1 AIS         1 TEMP              0 ****  ****    0 ROOT
