@<TRIPOS>MOLECULE
AIT
   62    66     1     0     0
SMALL
bcc


@<TRIPOS>ATOM
      1 C1           0.0000     0.0000     0.0000 c3         1 AIT       0.094700
      2 C2           1.5380     0.0000     0.0000 c3         1 AIT       0.233400
      3 O3           1.9970     0.0000     1.3360 os         1 AIT      -0.269900
      4 C4           1.7170     1.1420     2.0010 ca         1 AIT       0.117100
      5 C5           2.6190     1.4830     3.0140 ca         1 AIT      -0.112000
      6 C6           2.4320     2.6080     3.7850 ca         1 AIT      -0.103000
      7 C7           1.3340     3.4260     3.5670 ca         1 AIT       0.101100
      8 O8           1.1370     4.5320     4.3340 oh         1 AIT      -0.494100
      9 C9           0.4400     3.1070     2.5610 ca         1 AIT      -0.083000
     10 C10          0.6350     1.9770     1.7700 ca         1 AIT      -0.005100
     11 S11         -0.5190     1.6780     0.4660 ss         1 AIT      -0.313000
     12 C12         -0.5140    -0.9980     1.0060 ca         1 AIT      -0.103300
     13 C13         -0.5060    -0.6860     2.3530 ca         1 AIT      -0.081500
     14 C14         -0.9780    -1.6000     3.2760 ca         1 AIT      -0.136000
     15 C15         -1.4590    -2.8300     2.8520 ca         1 AIT       0.126100
     16 O16         -1.9230    -3.7290     3.7580 oh         1 AIT      -0.502100
     17 C17         -1.4650    -3.1390     1.4990 ca         1 AIT      -0.136000
     18 C18         -0.9990    -2.2210     0.5790 ca         1 AIT      -0.081500
     19 C19          2.0440    -1.2310    -0.7080 ca         1 AIT      -0.160300
     20 C20          2.4760    -1.1440    -2.0190 ca         1 AIT      -0.036500
     21 C21          2.9400    -2.2710    -2.6690 ca         1 AIT      -0.188500
     22 C22          2.9720    -3.4900    -2.0070 ca         1 AIT       0.144100
     23 C23          2.5320    -3.5740    -0.6940 ca         1 AIT      -0.188500
     24 C24          2.0750    -2.4440    -0.0450 ca         1 AIT      -0.036500
     25 O25          3.4270    -4.6000    -2.6450 os         1 AIT      -0.256900
     26 C26          3.3370    -5.6790    -1.7130 c3         1 AIT       0.164400
     27 C27          3.8370    -6.9650    -2.3720 c3         1 AIT       0.109500
     28 C28          3.0600    -7.2110    -3.6670 c3         1 AIT      -0.005100
     29 N29          5.2680    -6.8350    -2.6760 n3         1 AIT      -0.518600
     30 C30          5.9680    -6.7120    -1.3850 c3         1 AIT       0.136300
     31 C31          6.8750    -7.9520    -1.2360 c3         1 AIT      -0.038400
     32 C32          7.0680    -8.4210    -2.7020 c3         1 AIT      -0.038400
     33 C33          5.6830    -8.1000    -3.3190 c3         1 AIT       0.136300
     34 H1          -0.3690    -0.2390    -0.9900 h1         1 AIT       0.082700
     35 H2           1.8990     0.8880    -0.5050 h1         1 AIT       0.040700
     36 H5           3.4810     0.8520     3.1940 ha         1 AIT       0.121000
     37 H6           3.1510     2.8610     4.5550 ha         1 AIT       0.116000
     38 HO8          1.5390     5.2770     3.9190 ho         1 AIT       0.402000
     39 H9          -0.4200     3.7420     2.3860 ha         1 AIT       0.128000
     40 H13         -0.1310     0.2740     2.6840 ha         1 AIT       0.125500
     41 H14         -0.9720    -1.3550     4.3320 ha         1 AIT       0.115000
     42 H16         -2.8450    -3.5910     3.8930 ho         1 AIT       0.403000
     43 H17         -1.8430    -4.0980     1.1650 ha         1 AIT       0.115000
     44 H18         -1.0040    -2.4620    -0.4770 ha         1 AIT       0.125500
     45 H20          2.4520    -0.1930    -2.5350 ha         1 AIT       0.115500
     46 H21          3.2800    -2.2020    -3.6950 ha         1 AIT       0.127000
     47 H23          2.5560    -4.5240    -0.1750 ha         1 AIT       0.127000
     48 H24          1.7320    -2.5090     0.9810 ha         1 AIT       0.115500
     49 H261         3.9460    -5.4580    -0.8450 h1         1 AIT       0.018700
     50 H262         2.3060    -5.8070    -1.4080 h1         1 AIT       0.018700
     51 H27          3.6870    -7.7990    -1.6970 h1         1 AIT       0.018700
     52 H281         3.0030    -8.2760    -3.8580 hc         1 AIT       0.013700
     53 H282         3.5670    -6.7230    -4.4910 hc         1 AIT       0.013700
     54 H283         2.0590    -6.8080    -3.5700 hc         1 AIT       0.013700
     55 H301         5.2470    -6.6850    -0.5770 h1         1 AIT       0.021450
     56 H302         6.5720    -5.8130    -1.3780 h1         1 AIT       0.021450
     57 H311         7.8260    -7.6790    -0.7950 hc         1 AIT       0.020700
     58 H312         6.3800    -8.7190    -0.6530 hc         1 AIT       0.020700
     59 H321         7.8490    -7.8490    -3.1900 hc         1 AIT       0.020700
     60 H322         7.2720    -9.4840    -2.7440 hc         1 AIT       0.020700
     61 H331         4.9770    -8.8880    -3.0870 h1         1 AIT       0.021450
     62 H332         5.7700    -7.9660    -4.3900 h1         1 AIT       0.021450
@<TRIPOS>BOND
     1     1     2 1   
     2     1    11 1   
     3     1    12 1   
     4     1    34 1   
     5     2     3 1   
     6     2    19 1   
     7     2    35 1   
     8     3     4 1   
     9     4     5 ar  
    10     4    10 ar  
    11     5     6 ar  
    12     5    36 1   
    13     6     7 ar  
    14     6    37 1   
    15     7     8 1   
    16     7     9 ar  
    17     8    38 1   
    18     9    10 ar  
    19     9    39 1   
    20    10    11 1   
    21    12    13 ar  
    22    12    18 ar  
    23    13    14 ar  
    24    13    40 1   
    25    14    15 ar  
    26    14    41 1   
    27    15    16 1   
    28    15    17 ar  
    29    16    42 1   
    30    17    18 ar  
    31    17    43 1   
    32    18    44 1   
    33    19    20 ar  
    34    19    24 ar  
    35    20    21 ar  
    36    20    45 1   
    37    21    22 ar  
    38    21    46 1   
    39    22    23 ar  
    40    22    25 1   
    41    23    24 ar  
    42    23    47 1   
    43    24    48 1   
    44    25    26 1   
    45    26    27 1   
    46    26    49 1   
    47    26    50 1   
    48    27    28 1   
    49    27    29 1   
    50    27    51 1   
    51    28    52 1   
    52    28    53 1   
    53    28    54 1   
    54    29    30 1   
    55    29    33 1   
    56    30    31 1   
    57    30    55 1   
    58    30    56 1   
    59    31    32 1   
    60    31    57 1   
    61    31    58 1   
    62    32    33 1   
    63    32    59 1   
    64    32    60 1   
    65    33    61 1   
    66    33    62 1   
@<TRIPOS>SUBSTRUCTURE
     1 AIT         1 TEMP              0 ****  ****    0 ROOT
