@<TRIPOS>MOLECULE
molecule
   65    69     1     0     0
SMALL
bcc


@<TRIPOS>ATOM
      1 C1           0.0000     0.0000     0.0000 c3         1 AIU       0.028700
      2 C2           1.5390     0.0000     0.0000 c3         1 AIU       0.193400
      3 O3           1.9970     0.0000     1.3370 os         1 AIU      -0.293900
      4 C4           1.7180     1.1430     2.0010 ca         1 AIU       0.105100
      5 C5           2.6200     1.4840     3.0140 ca         1 AIU      -0.131000
      6 C6           2.4330     2.6090     3.7840 ca         1 AIU      -0.129000
      7 C7           1.3350     3.4270     3.5660 ca         1 AIU       0.089100
      8 O8           1.1390     4.5330     4.3320 oh         1 AIU      -0.517100
      9 C9           0.4400     3.1090     2.5600 ca         1 AIU      -0.112000
     10 C10          0.6360     1.9780     1.7700 ca         1 AIU      -0.023100
     11 S11         -0.5180     1.6790     0.4650 ss         1 AIU      -0.228000
     12 C12         -0.5150    -0.9970     1.0060 ca         1 AIU      -0.089300
     13 C13         -0.5150    -0.6820     2.3520 ca         1 AIU      -0.101000
     14 C14         -0.9850    -1.5940     3.2760 ca         1 AIU      -0.154500
     15 C15         -1.4600    -2.8280     2.8530 ca         1 AIU       0.107100
     16 O16         -1.9240    -3.7270     3.7600 oh         1 AIU      -0.522100
     17 C17         -1.4590    -3.1420     1.5010 ca         1 AIU      -0.154500
     18 C18         -0.9910    -2.2240     0.5800 ca         1 AIU      -0.101000
     19 C19          2.0440    -1.2310    -0.7070 ca         1 AIU      -0.135300
     20 C20          2.4750    -1.1460    -2.0180 ca         1 AIU      -0.067500
     21 C21          2.9390    -2.2730    -2.6690 ca         1 AIU      -0.197500
     22 C22          2.9700    -3.4910    -2.0060 ca         1 AIU       0.132100
     23 C23          2.5310    -3.5760    -0.6930 ca         1 AIU      -0.197500
     24 C24          2.0740    -2.4450    -0.0440 ca         1 AIU      -0.067500
     25 O25          3.4260    -4.6020    -2.6440 os         1 AIU      -0.275900
     26 C26          3.3350    -5.6800    -1.7110 c3         1 AIU       0.118400
     27 C27          3.8350    -6.9680    -2.3690 c3         1 AIU       0.130800
     28 N28          5.2660    -6.8370    -2.6750 n3         1 AIU      -0.664600
     29 C29          5.6270    -7.9930    -3.5160 c3         1 AIU       0.134800
     30 C30          6.6370    -8.8420    -2.7170 c3         1 AIU      -0.089200
     31 C31          7.7340    -9.3850    -3.6350 c3         1 AIU      -0.083100
     32 C32          7.2250    -7.8300    -1.6990 c3         1 AIU      -0.089200
     33 C33          7.7240    -8.5370    -0.4380 c3         1 AIU      -0.083100
     34 C34          5.9870    -6.9480    -1.3890 c3         1 AIU       0.134800
     35 H1          -0.3690    -0.2390    -0.9900 h1         1 AIU       0.107700
     36 H2           1.8990     0.8880    -0.5050 h1         1 AIU       0.071700
     37 H5           3.4820     0.8530     3.1940 ha         1 AIU       0.150000
     38 H6           3.1470     2.8570     4.5600 ha         1 AIU       0.146000
     39 HO8          0.6030     4.3100     5.0750 ho         1 AIU       0.419000
     40 H9          -0.4190     3.7440     2.3840 ha         1 AIU       0.154000
     41 H13         -0.1440     0.2810     2.6830 ha         1 AIU       0.144500
     42 H14         -0.9850    -1.3470     4.3310 ha         1 AIU       0.140500
     43 H16         -1.2120    -4.2670     4.0600 ho         1 AIU       0.418000
     44 H17         -1.8300    -4.1030     1.1680 ha         1 AIU       0.140500
     45 H18         -0.9910    -2.4690    -0.4750 ha         1 AIU       0.144500
     46 H20          2.4510    -0.1950    -2.5350 ha         1 AIU       0.142000
     47 H21          3.2800    -2.2060    -3.6950 ha         1 AIU       0.145500
     48 H23          2.5550    -4.5260    -0.1740 ha         1 AIU       0.145500
     49 H24          1.7310    -2.5100     0.9810 ha         1 AIU       0.142000
     50 H261         3.9450    -5.4590    -0.8430 h1         1 AIU       0.042700
     51 H262         2.3040    -5.8080    -1.4050 h1         1 AIU       0.042700
     52 H271         3.6850    -7.8010    -1.6940 h1         1 AIU       0.047700
     53 H272         3.2850    -7.1420    -3.2860 h1         1 AIU       0.047700
     54 H291         6.0830    -7.6500    -4.4370 h1         1 AIU       0.048700
     55 H292         4.7430    -8.5810    -3.7320 h1         1 AIU       0.048700
     56 H30          6.1300    -9.6480    -2.2010 hc         1 AIU       0.061700
     57 H311         8.4030   -10.0170    -3.0640 hc         1 AIU       0.036533
     58 H312         8.2920    -8.5580    -4.0590 hc         1 AIU       0.036533
     59 H313         7.2840    -9.9640    -4.4330 hc         1 AIU       0.036533
     60 H32          8.0110    -7.2400    -2.1560 hc         1 AIU       0.061700
     61 H331         7.9380    -7.8020     0.3280 hc         1 AIU       0.036533
     62 H332         8.6260    -9.0920    -0.6680 hc         1 AIU       0.036533
     63 H333         6.9620    -9.2190    -0.0810 hc         1 AIU       0.036533
     64 H341         6.3010    -5.9690    -1.0480 h1         1 AIU       0.048700
     65 H342         5.3600    -7.4290    -0.6480 h1         1 AIU       0.048700
@<TRIPOS>BOND
     1     1     2 1
     2     1    11 1
     3     1    12 1
     4     1    35 1
     5     2     3 1
     6     2    19 1
     7     2    36 1
     8     3     4 1
     9     4     5 ar
    10     4    10 ar
    11     5     6 ar
    12     5    37 1
    13     6     7 ar
    14     6    38 1
    15     7     8 1
    16     7     9 ar
    17     8    39 1
    18     9    10 ar
    19     9    40 1
    20    10    11 1
    21    12    13 ar
    22    12    18 ar
    23    13    14 ar
    24    13    41 1
    25    14    15 ar
    26    14    42 1
    27    15    16 1
    28    15    17 ar
    29    16    43 1
    30    17    18 ar
    31    17    44 1
    32    18    45 1
    33    19    20 ar
    34    19    24 ar
    35    20    21 ar
    36    20    46 1
    37    21    22 ar
    38    21    47 1
    39    22    23 ar
    40    22    25 1
    41    23    24 ar
    42    23    48 1
    43    24    49 1
    44    25    26 1
    45    26    27 1
    46    26    50 1
    47    26    51 1
    48    27    28 1
    49    27    52 1
    50    27    53 1
    51    28    29 1
    52    28    34 1
    53    29    30 1
    54    29    54 1
    55    29    55 1
    56    30    31 1
    57    30    32 1
    58    30    56 1
    59    31    57 1
    60    31    58 1
    61    31    59 1
    62    32    33 1
    63    32    34 1
    64    32    60 1
    65    33    61 1
    66    33    62 1
    67    33    63 1
    68    34    64 1
    69    34    65 1
@<TRIPOS>SUBSTRUCTURE
     1 AIU         1 TEMP              0 ****  ****    0 ROOT
