@<TRIPOS>MOLECULE
AIX
   46    42     1     0     0
SMALL
bcc


@<TRIPOS>ATOM
      1 C8          2.0680    1.5620   -0.3350 c2        1 AIX     -0.150000
      2 C5          2.3170   -0.1100    1.4700 c2        1 AIX     -0.158000
      3 C6          2.2860   -6.8620   -2.6570 c2        1 AIX     -0.168000
      4 N1          4.5860   -2.1580    0.5810 n4        1 AIX     -0.008000
      5 N3          3.5210   -5.1190   -1.4090 n3        1 AIX     -0.223000
      6 C4          2.8930    0.0680    2.8460 c3        1 AIX     -0.057000
      7 C3          6.0210   -2.2480    3.1260 c1        1 AIX      0.223500
      8 C7          2.8320    0.7820    0.4400 c2        1 AIX     -0.175000
      9 C9          0.8910   -0.3880   -1.1250 c1        1 AIX      0.215000
     10 C10         0.8390   -1.2500   -0.1190 c2        1 AIX     -0.487000
     11 C11         1.3760   -1.0440    1.2030 c2        1 AIX     -0.064000
     12 C12         2.3710   -5.7490   -1.8710 c2        1 AIX     -0.072000
     13 C13         3.4980   -3.9740   -0.6720 c2        1 AIX      0.089000
     14 C14         4.6330   -3.3670   -0.2000 c2        1 AIX     -0.405000
     15 C15         7.0520    1.1500   -0.4460 c1        1 AIX      0.223500
     16 N2          3.4690   -1.1520    3.3820 n3        1 AIX     -0.390000
     17 O3          6.2250   -2.0990    4.2640 o         1 AIX     -0.205500
     18 O4          6.3080    0.2900   -0.1400 o         1 AIX     -0.205500
     19 S1          5.5600   -7.2160   -2.8410 sh        1 AIX     -0.095000
     20 H8          2.4980    2.1940   -1.1250 ha        1 AIX      0.145000
     21 HN1         4.9810   -1.3830    0.0380 hn        1 AIX      0.259333
     22 HN3         4.3990   -5.5530   -1.6570 hn        1 AIX      0.276000
     23 H4          3.7110    0.8440    2.8120 h1        1 AIX      0.099000
     24 H1          0.5340   -8.1710   -2.4620 h1        1 AIX      0.144500
     25 H1A         0.5430   -7.1040   -3.9700 h1        1 AIX      0.144500
     26 H1B         3.1000   -7.4640   -3.0750 ha        1 AIX      0.201000
     27 H7          3.9320    0.7880    0.3350 ha        1 AIX      0.116000
     28 H9          0.9790    1.6790   -0.1980 ha        1 AIX      0.145000
     29 H10         0.2950   -2.2100   -0.2870 ha        1 AIX      0.224000
     30 H11         0.9720   -1.6930    2.0000 ha        1 AIX      0.143000
     31 H12         6.1500   -8.7470   -1.1820 h1        1 AIX      0.116000
     32 H13         2.4850   -3.5470   -0.4650 h4        1 AIX      0.193000
     33 H14         3.6200   -1.9100    0.8410 hn        1 AIX      0.259333
     34 H15         5.6540   -3.7400   -0.3760 hx        1 AIX      0.184000
     35 H16         6.3070   -6.7900   -3.8510 hs        1 AIX      0.066000
     36 H16A        7.5910   -7.7490   -1.6620 h1        1 AIX      0.116000
     37 H16B        7.0350   -9.1100   -2.7230 h1        1 AIX      0.116000
     38 HN2         2.7570   -1.8480    3.5080 hn        1 AIX      0.156500
     39 HN2A        3.8850   -0.9620    4.2760 hn        1 AIX      0.156500
     40 C2          0.9700   -5.3030   -1.5640 c2        1 AIX      0.344000
     41 O1          0.5190   -4.3710   -0.9080 o         1 AIX     -0.320000
     42 O2          0.0840   -6.1600   -2.1750 os        1 AIX     -0.213000
     43 C16         6.7010   -8.2980   -2.0400 c3        1 AIX     -0.303000
     44 H121        5.1490   -2.2790    1.4560 hn        1 AIX      0.259333
     45 H23         2.0740    0.4840    3.5070 h1        1 AIX      0.099000
     46 C1          0.8390   -7.1840   -2.8930 c3        1 AIX     -0.014000
@<TRIPOS>BOND
     1    1    8 1
     2    1   20 1
     3    1   28 1
     4    2    6 1
     5    2    8 1
     6    2   11 1
     7    3   12 1
     8    3   26 1
     9    3   46 1
    10    4   14 1
    11    4   21 1
    12    4   33 1
    13    4   44 1
    14    5   12 1
    15    5   13 1
    16    5   22 1
    17    6   16 1
    18    6   23 1
    19    6   45 1
    20    7   17 1
    21    8   27 1
    22    9   10 1
    23   10   11 1
    24   10   29 1
    25   11   30 1
    26   12   40 1
    27   13   14 1
    28   13   32 1
    29   14   34 1
    30   15   18 1
    31   16   38 1
    32   16   39 1
    33   19   35 1
    34   19   43 1
    35   24   46 1
    36   25   46 1
    37   31   43 1
    38   36   43 1
    39   37   43 1
    40   40   41 1
    41   40   42 1
    42   42   46 1
@<TRIPOS>SUBSTRUCTURE
     1 AIX         1 TEMP              0 ****  ****    0 ROOT
