@<TRIPOS>MOLECULE
AIZ
   60    63     1     0     0
SMALL
bcc


@<TRIPOS>ATOM
      1 C1           0.0000     0.0000     0.0000 cc         1 AIZ       0.512500
      2 C2           1.4660     0.0000     0.0000 ca         1 AIZ      -0.260900
      3 C3          -0.8760     0.0020    -1.1960 ca         1 AIZ      -0.142900
      4 N4          -0.3960    -0.0080     1.2480 nd         1 AIZ      -0.657100
      5 C5           1.8600     0.0000     1.3520 ca         1 AIZ      -0.166200
      6 C6           2.4340     0.0150    -1.0090 ca         1 AIZ       0.030000
      7 C7          -2.0370    -0.7690    -1.2130 ca         1 AIZ      -0.086000
      8 C8          -0.5420     0.7780    -2.3030 ca         1 AIZ      -0.067000
      9 N9           0.7120    -0.0080     2.1020 na         1 AIZ       0.395900
     10 C10          3.2150     0.0040     1.6700 ca         1 AIZ      -0.188000
     11 C11          3.7570     0.0180    -0.6810 ca         1 AIZ      -0.188000
     12 C12         -2.8540    -0.7730    -2.3340 ca         1 AIZ      -0.148400
     13 C13         -1.3680     0.7780    -3.4260 ca         1 AIZ      -0.098600
     14 C14          4.1570     0.0130     0.6570 ca         1 AIZ       0.039600
     15 C15         -2.5260    -0.0010    -3.4380 ca         1 AIZ      -0.072000
     16 N16         -4.0170    -1.5540    -2.3470 ns         1 AIZ      -0.017100
     17 C17         -1.0180     1.6000    -4.6030 c          1 AIZ       0.975200
     18 N18          5.5170     0.0150     0.9750 nu         1 AIZ      -0.223000
     19 C19         -4.0420    -2.7370    -1.7020 c          1 AIZ       0.547100
     20 O20         -1.8170     1.5980    -5.6870 o          1 AIZ      -0.882800
     21 C21          5.9920     0.8280     2.0090 ca         1 AIZ       0.059600
     22 C22         -5.3280    -3.5160    -1.6070 c3         1 AIZ      -0.101400
     23 O23         -3.0290    -3.1750    -1.1980 o          1 AIZ      -0.643100
     24 C24          7.3100     0.7140     2.4360 ca         1 AIZ      -0.114600
     25 C25          5.1450     1.7470     2.6160 ca         1 AIZ      -0.187000
     26 C26         -5.0830    -4.8120    -0.8300 c3         1 AIZ      -0.019400
     27 C27          7.7760     1.5220     3.4550 ca         1 AIZ      -0.056000
     28 Cl28         8.3710    -0.4340     1.6820 cl         1 AIZ      -0.042400
     29 C29          5.6170     2.5480     3.6360 ca         1 AIZ      -0.051000
     30 C30         -6.3900    -5.6030    -0.7330 c3         1 AIZ       0.131800
     31 C31          6.9300     2.4360     4.0560 ca         1 AIZ      -0.161000
     32 N32         -6.1540    -6.8470     0.0120 n3         1 AIZ      -0.519600
     33 C33         -7.4740    -7.4340     0.2790 c3         1 AIZ       0.166100
     34 C34         -5.4610    -7.7630    -0.9030 c3         1 AIZ       0.166100
     35 O35         -0.0100     2.2780    -4.5910 o          1 AIZ      -0.882800
     36 H6           2.1330     0.0190    -2.0490 ha         1 AIZ       0.129000
     37 H7          -2.2970    -1.3740    -0.3520 ha         1 AIZ       0.134000
     38 H8           0.3570     1.3820    -2.2910 ha         1 AIZ       0.128000
     39 HN9          0.6730    -0.0130     3.1020 hn         1 AIZ       0.144700
     40 H10          3.5300    -0.0010     2.7060 ha         1 AIZ       0.120000
     41 H11          4.5050     0.0250    -1.4650 ha         1 AIZ       0.112000
     42 H15         -3.1680    -0.0050    -4.3110 ha         1 AIZ       0.131000
     43 H16         -4.8280    -1.2350    -2.8390 hn         1 AIZ       0.159500
     44 H18          6.1500    -0.5720     0.4690 hn         1 AIZ       0.293800
     45 H221        -5.6810    -3.7530    -2.6040 hc         1 AIZ       0.021700
     46 H222        -6.0730    -2.9220    -1.0920 hc         1 AIZ       0.021700
     47 H25          4.1170     1.8360     2.2880 ha         1 AIZ       0.148000
     48 H261        -4.3380    -5.4060    -1.3450 hc         1 AIZ       0.038700
     49 H262        -4.7300    -4.5740     0.1660 hc         1 AIZ       0.038700
     50 H27          8.8040     1.4350     3.7880 ha         1 AIZ       0.105000
     51 H29          4.9580     3.2650     4.1100 ha         1 AIZ       0.099000
     52 H301        -7.1340    -5.0090    -0.2180 h1         1 AIZ       0.007700
     53 H302        -6.7430    -5.8410    -1.7300 h1         1 AIZ       0.007700
     54 H31          7.2980     3.0680     4.8560 ha         1 AIZ       0.102000
     55 H331        -7.9970    -7.5870    -0.6570 h1         1 AIZ       0.002200
     56 H332        -7.3510    -8.3850     0.7830 h1         1 AIZ       0.002200
     57 H333        -8.0470    -6.7630     0.9070 h1         1 AIZ       0.002200
     58 H341        -4.3910    -7.6240    -0.8110 h1         1 AIZ       0.002200
     59 H342        -5.7150    -8.7860    -0.6510 h1         1 AIZ       0.002200
     60 H343        -5.7660    -7.5560    -1.9220 h1         1 AIZ       0.002200
@<TRIPOS>BOND
     1     1     2 1   
     2     1     3 1   
     3     1     4 2   
     4     2     5 ar  
     5     2     6 ar  
     6     3     7 ar  
     7     3     8 ar  
     8     4     9 1   
     9     5     9 1   
    10     5    10 ar  
    11     6    11 ar  
    12     6    36 1   
    13     7    12 ar  
    14     7    37 1   
    15     8    13 ar  
    16     8    38 1   
    17     9    39 1   
    18    10    14 ar  
    19    10    40 1   
    20    11    14 ar  
    21    11    41 1   
    22    12    15 ar  
    23    12    16 1   
    24    13    15 ar  
    25    13    17 1   
    26    14    18 1   
    27    15    42 1   
    28    16    19 1   
    29    16    43 1   
    30    17    20 1   
    31    17    35 1   
    32    18    21 1   
    33    18    44 1   
    34    19    22 1   
    35    19    23 2   
    36    21    24 ar  
    37    21    25 ar  
    38    22    26 1   
    39    22    45 1   
    40    22    46 1   
    41    24    27 ar  
    42    24    28 1   
    43    25    29 ar  
    44    25    47 1   
    45    26    30 1   
    46    26    48 1   
    47    26    49 1   
    48    27    31 ar  
    49    27    50 1   
    50    29    31 ar  
    51    29    51 1   
    52    30    32 1   
    53    30    52 1   
    54    30    53 1   
    55    31    54 1   
    56    32    33 1   
    57    32    34 1   
    58    33    55 1   
    59    33    56 1   
    60    33    57 1   
    61    34    58 1   
    62    34    59 1   
    63    34    60 1   
@<TRIPOS>SUBSTRUCTURE
     1 AIZ         1 TEMP              0 ****  ****    0 ROOT
