@<TRIPOS>MOLECULE
molecule
   26    27     1     0     0
SMALL
bcc


@<TRIPOS>ATOM
      1 C1           0.0000     0.0000     0.0000 c3         1 AJ1      -0.171100
      2 C2           1.5070     0.0000     0.0000 c          1 AJ1       0.654100
      3 O3           2.1140     0.0000     1.0510 o          1 AJ1      -0.591100
      4 N4           2.1810     0.0010    -1.1670 ns         1 AJ1      -0.478100
      5 C5           3.5770     0.1130    -1.1700 ca         1 AJ1       0.039600
      6 C6           4.3270    -0.5340    -2.1480 ca         1 AJ1      -0.145000
      7 C7           5.6860    -0.4330    -2.1630 ca         1 AJ1      -0.081000
      8 C8           6.3600     0.3280    -1.1850 ca         1 AJ1       0.155400
      9 C9           5.6030     0.9760    -0.2040 ca         1 AJ1      -0.049100
     10 C10          4.2150     0.8710    -0.2030 ca         1 AJ1      -0.074000
     11 S11          6.7010     1.8410     0.8670 ss         1 AJ1      -0.167100
     12 C12          8.0800     1.2770    -0.0660 cc         1 AJ1       0.670100
     13 N13          7.6860     0.5370    -1.0450 nd         1 AJ1      -0.673100
     14 N14          9.3970     1.5830     0.2090 nu         1 AJ1      -0.859200
     15 C15         10.4660     1.0530    -0.6410 c3         1 AJ1       0.234100
     16 H11C        -0.3610    -0.9470    -0.3840 hc         1 AJ1       0.063367
     17 H12C        -0.3610     0.1410     1.0120 hc         1 AJ1       0.063367
     18 H13C        -0.3610     0.8060    -0.6280 hc         1 AJ1       0.063367
     19 H4           1.6840    -0.0810    -2.0310 hn         1 AJ1       0.323500
     20 H6           3.8250    -1.1240    -2.9060 ha         1 AJ1       0.132000
     21 H10          3.6320     1.4140     0.5300 ha         1 AJ1       0.162000
     22 H7           6.2530    -0.9430    -2.9320 ha         1 AJ1       0.145000
     23 H14          9.6220     2.1670     0.9900 hn         1 AJ1       0.452800
     24 H151        11.4250     1.3980    -0.2720 h1         1 AJ1       0.043033
     25 H152        10.4390    -0.0290    -0.6220 h1         1 AJ1       0.043033
     26 H153        10.3240     1.4000    -1.6570 h1         1 AJ1       0.043033
@<TRIPOS>BOND
     1     1     2 1
     2     2     3 2
     3     2     4 1
     4     4     5 1
     5     5     6 ar
     6     5    10 ar
     7     6     7 ar
     8     7     8 ar
     9     8     9 ar
    10     8    13 1
    11     9    10 ar
    12     9    11 1
    13    11    12 1
    14    12    13 2
    15    12    14 1
    16    14    15 1
    17     1    16 1
    18     1    17 1
    19     1    18 1
    20     4    19 1
    21     6    20 1
    22    10    21 1
    23     7    22 1
    24    14    23 1
    25    15    24 1
    26    15    25 1
    27    15    26 1
@<TRIPOS>SUBSTRUCTURE
     1 AJ1         1 TEMP              0 ****  ****    0 ROOT
