@<TRIPOS>MOLECULE
molecule
   21    22     1     0     0
SMALL
bcc


@<TRIPOS>ATOM
      1 O            0.0000     0.0000     0.0000 oh         1 AJ2      -0.628300
      2 C4           1.3570     0.0000     0.0000 ca         1 AJ2       0.649600
      3 N            1.9970     0.0000     1.1490 nb         1 AJ2      -0.726000
      4 C5           3.3350    -0.0060     1.1970 ca         1 AJ2       0.444600
      5 C6           4.0850    -0.0110    -0.0040 ca         1 AJ2      -0.166300
      6 C2           3.4030    -0.0110    -1.2380 ca         1 AJ2      -0.021300
      7 C1           4.1610    -0.0170    -2.5410 c3         1 AJ2      -0.051800
      8 C3           2.0400    -0.0050    -1.2220 ca         1 AJ2      -0.264300
      9 C7           5.4870    -0.0170     0.0540 ca         1 AJ2      -0.106000
     10 C8           6.1110    -0.0160     1.2640 ca         1 AJ2      -0.131000
     11 C9           5.3760    -0.0110     2.4470 ca         1 AJ2      -0.115000
     12 C10          4.0140    -0.0060     2.4270 ca         1 AJ2      -0.168300
     13 H2           4.7750    -0.9080    -2.5970 hc         1 AJ2       0.050700
     14 H3           4.7930     0.8610    -2.5950 hc         1 AJ2       0.050700
     15 H4           3.4600    -0.0090    -3.3660 hc         1 AJ2       0.050700
     16 H5           1.4870    -0.0770    -2.1510 ha         1 AJ2       0.149000
     17 H6           6.0700    -0.0210    -0.8590 ha         1 AJ2       0.134000
     18 H7           7.1940    -0.0200     1.3080 ha         1 AJ2       0.131000
     19 H8           5.8950    -0.0100     3.3980 ha         1 AJ2       0.134000
     20 H9           3.4560    -0.0020     3.3560 ha         1 AJ2       0.150000
     21 H1          -0.3140     0.8550     0.2420 ho         1 AJ2       0.433000
@<TRIPOS>BOND
     1    11    10 ar
     2    11    12 ar
     3    10     9 ar
     4    12     4 ar
     5     9     5 ar
     6     4     5 ar
     7     4     3 ar
     8     5     6 ar
     9     3     2 ar
    10     6     7 1
    11     6     8 ar
    12     2     8 ar
    13     2     1 1
    14     7    13 1
    15     7    14 1
    16     7    15 1
    17     8    16 1
    18     9    17 1
    19    10    18 1
    20    11    19 1
    21    12    20 1
    22     1    21 1
@<TRIPOS>SUBSTRUCTURE
     1 AJ2         1 TEMP              0 ****  ****    0 ROOT
