@<TRIPOS>MOLECULE
AJ2
   21    22     1     0     0
SMALL
bcc


@<TRIPOS>ATOM
      1 O          -0.0190    0.1890   -0.1520 oh        1 AJ2     -0.618300
      2 C4          1.3520    0.1310   -0.0530 ca        1 AJ2      0.646600
      3 N           1.9400    0.1360    1.1440 nb        1 AJ2     -0.751000
      4 C5          3.3190    0.0750    1.1610 ca        1 AJ2      0.436600
      5 C6          4.0980    0.0100   -0.0360 ca        1 AJ2     -0.173300
      6 C2          3.4140    0.0070   -1.2960 ca        1 AJ2     -0.003300
      7 C1          4.1810   -0.0590   -2.5620 c3        1 AJ2     -0.064800
      8 C3          2.0410    0.0680   -1.3140 ca        1 AJ2     -0.252300
      9 C7          5.5110   -0.0500    0.0600 ca        1 AJ2     -0.100000
     10 C8          6.1340   -0.0460    1.2840 ca        1 AJ2     -0.141000
     11 C9          5.3700    0.0190    2.4710 ca        1 AJ2     -0.113000
     12 C10         3.9990    0.0780    2.4220 ca        1 AJ2     -0.179300
     13 H2          3.5010   -0.0520   -3.4480 hc        1 AJ2      0.053700
     14 H3          4.8730    0.8170   -2.6410 hc        1 AJ2      0.053700
     15 H4          4.7930   -0.9960   -2.5940 hc        1 AJ2      0.053700
     16 H5          1.4540    0.0700   -2.2410 ha        1 AJ2      0.160000
     17 H6          6.1050   -0.1000   -0.8660 ha        1 AJ2      0.133000
     18 H7          7.2310   -0.0920    1.3550 ha        1 AJ2      0.134000
     19 H8          5.8890    0.0210    3.4410 ha        1 AJ2      0.135000
     20 H9          3.4050    0.1280    3.3480 ha        1 AJ2      0.150000
     21 H1         -0.4090    0.2290    0.7370 ho        1 AJ2      0.441000
@<TRIPOS>BOND
     1    1    2 1   
     2    1   21 1   
     3    2    3 ar  
     4    2    8 ar  
     5    3    4 ar  
     6    4    5 ar  
     7    4   12 ar  
     8    5    6 ar  
     9    5    9 ar  
    10    6    7 1   
    11    6    8 ar  
    12    7   13 1   
    13    7   14 1   
    14    7   15 1   
    15    8   16 1   
    16    9   10 ar  
    17    9   17 1   
    18   10   11 ar  
    19   10   18 1   
    20   11   12 ar  
    21   11   19 1   
    22   12   20 1   
@<TRIPOS>SUBSTRUCTURE
     1 AJ2         1 TEMP              0 ****  ****    0 ROOT
