@<TRIPOS>MOLECULE
molecule
   19    18     1     0     0
SMALL
bcc


@<TRIPOS>ATOM
      1 S5           0.0000     0.0000     0.0000 sh         1 AJ3      -0.353400
      2 C6B          1.7620     0.0000     0.0000 c2         1 AJ3      -0.011400
      3 C7           2.4220     0.0000     1.1430 c2         1 AJ3      -0.143200
      4 C8B          3.9290     0.0000     1.1430 c3         1 AJ3      -0.039900
      5 S9           4.5340     1.5490     1.8680 s4         1 AJ3       0.284600
      6 C10          6.3360     1.3650     1.7820 c3         1 AJ3      -0.050900
      7 C11          6.9950     2.5920     2.3550 c2         1 AJ3      -0.152200
      8 C12          7.7130     2.5010     3.4470 c2         1 AJ3      -0.217000
      9 O13          4.1300     2.6420     1.0530 o          1 AJ3      -0.491200
     10 HS5         -0.4430     0.0310    -1.2510 hs         1 AJ3       0.210800
     11 H6B          2.3030     0.0000    -0.9380 h4         1 AJ3       0.137000
     12 H7           1.8810     0.0000     2.0820 ha         1 AJ3       0.141000
     13 H8B1         4.2900    -0.0870     0.1260 h1         1 AJ3       0.079200
     14 H8B2         4.2900    -0.8370     1.7280 h1         1 AJ3       0.079200
     15 H101         6.6380     0.4940     2.3510 h1         1 AJ3       0.079200
     16 H102         6.6380     1.2420     0.7480 h1         1 AJ3       0.079200
     17 H11          6.8750     3.5510     1.8640 ha         1 AJ3       0.140000
     18 H121         8.1870     3.3840     3.8590 ha         1 AJ3       0.114500
     19 H122         7.8330     1.5430     3.9370 ha         1 AJ3       0.114500
@<TRIPOS>BOND
     1     1     2 1
     2     1    10 1
     3     2     3 2
     4     2    11 1
     5     3     4 1
     6     3    12 1
     7     4     5 1
     8     4    13 1
     9     4    14 1
    10     5     6 1
    11     5     9 2
    12     6     7 1
    13     6    15 1
    14     6    16 1
    15     7     8 2
    16     7    17 1
    17     8    18 1
    18     8    19 1
@<TRIPOS>SUBSTRUCTURE
     1 AJ3         1 TEMP              0 ****  ****    0 ROOT
