@<TRIPOS>MOLECULE
AJ3
   19    18     1     0     0
SMALL
bcc


@<TRIPOS>ATOM
      1 S5          0.9800    0.8220   -0.3120 sh        1 AJ3     -0.267400
      2 C6B         1.5230   -0.3870    0.7070 c2        1 AJ3     -0.056400
      3 C7          2.7480   -0.7100    1.1440 c2        1 AJ3     -0.199200
      4 C8B         4.0070   -0.0620    0.7450 c3        1 AJ3     -0.047900
      5 S9          4.3000    1.3530    1.7690 s4        1 AJ3      0.254600
      6 C10         6.0560    1.4370    1.6200 c3        1 AJ3     -0.053900
      7 C11         6.5410    2.6000    2.3870 c2        1 AJ3     -0.160200
      8 C12         7.3880    2.5210    3.4120 c2        1 AJ3     -0.210000
      9 O13         3.7770    2.4900    0.9540 o         1 AJ3     -0.508200
     10 HS5         2.0710    1.5760   -0.4530 hs        1 AJ3      0.230800
     11 H6B         0.6680   -1.0020    1.0490 h4        1 AJ3      0.155000
     12 H7          2.8620   -1.5600    1.8390 ha        1 AJ3      0.132000
     13 H8B1        4.8510   -0.7910    0.8510 h1        1 AJ3      0.090700
     14 H8B2        3.9730    0.2310   -0.3370 h1        1 AJ3      0.090700
     15 H101        6.5010    0.4830    2.0030 h1        1 AJ3      0.088700
     16 H102        6.3830    1.5450    0.5540 h1        1 AJ3      0.088700
     17 H11         6.1560    3.5740    2.0330 ha        1 AJ3      0.142000
     18 H121        7.7980    1.5710    3.7770 ha        1 AJ3      0.114500
     19 H122        7.7290    3.4130    3.9540 ha        1 AJ3      0.114500
@<TRIPOS>BOND
     1    1    2 1   
     2    1   10 1   
     3    2    3 2   
     4    2   11 1   
     5    3    4 1   
     6    3   12 1   
     7    4    5 1   
     8    4   13 1   
     9    4   14 1   
    10    5    6 1   
    11    5    9 2   
    12    6    7 1   
    13    6   15 1   
    14    6   16 1   
    15    7    8 2   
    16    7   17 1   
    17    8   18 1   
    18    8   19 1   
@<TRIPOS>SUBSTRUCTURE
     1 AJ3         1 TEMP              0 ****  ****    0 ROOT
