@<TRIPOS>MOLECULE
molecule
   31    33     1     0     0
SMALL
bcc


@<TRIPOS>ATOM
      1 CAA          0.0000     0.0000     0.0000 c3         1 AJ4      -0.058900
      2 CAM          1.5060     0.0000     0.0000 cc         1 AJ4       0.007600
      3 CAJ          2.2000     0.0000     1.1670 cd         1 AJ4      -0.243200
      4 CAQ          3.6100    -0.0000     1.1550 c          1 AJ4       0.696700
      5 OAB          4.2130     0.0000     2.2150 o          1 AJ4      -0.647500
      6 NAL          4.3070    -0.0030     0.0050 ns         1 AJ4      -0.429100
      7 CAR          3.6620    -0.0040    -1.2140 ca         1 AJ4       0.090600
      8 CAK          4.3830    -0.0040    -2.4010 ca         1 AJ4      -0.170000
      9 CAS          2.2540    -0.0080    -1.2580 ca         1 AJ4      -0.124800
     10 CAI          1.5900    -0.0140    -2.4910 ca         1 AJ4      -0.073000
     11 CAH          2.3090    -0.0200    -3.6490 ca         1 AJ4      -0.143000
     12 CAO          3.7080    -0.0050    -3.6160 cp         1 AJ4       0.011000
     13 CAP          4.4750    -0.0060    -4.8850 cp         1 AJ4      -0.085000
     14 CAG          5.5060     0.9130    -5.0810 ca         1 AJ4      -0.090000
     15 CAE          6.2170     0.9070    -6.2630 ca         1 AJ4      -0.144000
     16 CAD          5.9090    -0.0080    -7.2550 ca         1 AJ4      -0.098000
     17 CAF          4.8890    -0.9230    -7.0690 ca         1 AJ4      -0.167000
     18 CAN          4.1730    -0.9310    -5.8850 ca         1 AJ4       0.146900
     19 FAC          3.1800    -1.8280    -5.7010 f          1 AJ4      -0.134900
     20 H1          -0.3610     0.8790    -0.5200 hc         1 AJ4       0.052367
     21 H2          -0.3610    -0.8900    -0.5010 hc         1 AJ4       0.052367
     22 H3          -0.3610     0.0110     1.0210 hc         1 AJ4       0.052367
     23 H4           1.6680     0.0000     2.1110 ha         1 AJ4       0.165000
     24 H5           5.3070    -0.0030     0.0350 hn         1 AJ4       0.338500
     25 H6           5.4660     0.0070    -2.3790 ha         1 AJ4       0.141000
     26 H7           0.5080    -0.0250    -2.5240 ha         1 AJ4       0.140000
     27 H8           1.7940    -0.0200    -4.6020 ha         1 AJ4       0.144000
     28 H9           5.7480     1.6300    -4.3050 ha         1 AJ4       0.142000
     29 H10          7.0170     1.6210    -6.4160 ha         1 AJ4       0.137000
     30 H11          6.4690    -0.0060    -8.1820 ha         1 AJ4       0.138000
     31 H12          4.6550    -1.6380    -7.8480 ha         1 AJ4       0.148000
@<TRIPOS>BOND
     1     5     4 2
     2     3     4 1
     3     3     2 2
     4     4     6 1
     5     1     2 1
     6     2     9 1
     7     6     7 1
     8     9     7 ar
     9     9    10 ar
    10     7     8 ar
    11    10    11 ar
    12     8    12 ar
    13    11    12 ar
    14    12    13 1
    15    19    18 1
    16    13    18 ar
    17    13    14 ar
    18    18    17 ar
    19    14    15 ar
    20    17    16 ar
    21    15    16 ar
    22     1    20 1
    23     1    21 1
    24     1    22 1
    25     3    23 1
    26     6    24 1
    27     8    25 1
    28    10    26 1
    29    11    27 1
    30    14    28 1
    31    15    29 1
    32    16    30 1
    33    17    31 1
@<TRIPOS>SUBSTRUCTURE
     1 AJ4         1 TEMP              0 ****  ****    0 ROOT
