@<TRIPOS>MOLECULE
molecule
   45    47     1     0     0
SMALL
bcc


@<TRIPOS>ATOM
      1 C4           0.0000     0.0000     0.0000 c3         1 AJ5       0.118000
      2 C6          -1.8130    -0.0000     1.6280 c          1 AJ5       0.672700
      3 C8          -2.3060    -0.0010     3.0200 ca         1 AJ5      -0.132600
      4 C10         -4.1390     0.0000     4.5740 ca         1 AJ5      -0.118000
      5 C13         -3.2290    -0.9370     7.9460 ca         1 AJ5      -0.139000
      6 C15         -4.6470    -0.0290     9.6460 ca         1 AJ5      -0.119800
      7 C17         -4.6360    -1.0220    12.0280 c3         1 AJ5      -0.058900
      8 C24         -4.6850     0.9260     7.4260 ca         1 AJ5      -0.165000
      9 C1           3.4310    -1.3240     0.6180 c3         1 AJ5       0.127700
     10 O2           2.0060    -1.2210     0.5700 os         1 AJ5      -0.430600
     11 C3           1.5300     0.0000     0.0000 c3         1 AJ5       0.116400
     12 N5          -0.4880     0.0000     1.3820 ns         1 AJ5      -0.575900
     13 O7          -2.6030     0.0010     0.7030 o          1 AJ5      -0.608100
     14 C9          -3.6800     0.0000     3.2760 ca         1 AJ5      -0.067000
     15 C11         -3.2330    -0.0010     5.6350 cp         1 AJ5      -0.017000
     16 C12         -3.7280    -0.0020     7.0310 cp         1 AJ5      -0.001000
     17 C14         -3.6790    -0.9540     9.2330 ca         1 AJ5      -0.075000
     18 C16         -5.1520    -0.0290    11.0190 cc         1 AJ5       0.006600
     19 C18         -6.0930     0.8830    11.3650 cd         1 AJ5      -0.240200
     20 C19         -6.5680     1.8100    10.4120 c          1 AJ5       0.696700
     21 O20         -7.4150     2.6220    10.7440 o          1 AJ5      -0.645500
     22 N21         -6.1120     1.8180     9.1470 ns         1 AJ5      -0.429100
     23 C23         -5.1550     0.9160     8.7320 ca         1 AJ5       0.088600
     24 C25         -1.8600    -0.0070     5.3810 ca         1 AJ5       0.028400
     25 Cl          -0.7330    -0.0100     6.7020 cl         1 AJ5      -0.096400
     26 C27         -1.3990    -0.0060     4.0830 ca         1 AJ5      -0.100000
     27 H1          -0.3610    -0.8850    -0.5110 h1         1 AJ5       0.065700
     28 H2          -0.3610     0.8850    -0.5110 h1         1 AJ5       0.065700
     29 H3          -5.2040     0.0010     4.7720 ha         1 AJ5       0.148000
     30 H4          -2.4830    -1.6560     7.6270 ha         1 AJ5       0.146000
     31 H5          -5.1270    -0.8580    12.9800 hc         1 AJ5       0.052700
     32 H6          -3.5670    -0.8940    12.1470 hc         1 AJ5       0.052700
     33 H7          -4.8430    -2.0280    11.6840 hc         1 AJ5       0.052700
     34 H8          -5.0690     1.6480     6.7150 ha         1 AJ5       0.142000
     35 H9           3.8330    -0.5090     1.2070 h1         1 AJ5       0.032367
     36 H10          3.7100    -2.2680     1.0700 h1         1 AJ5       0.032367
     37 H11          3.8310    -1.2740    -0.3880 h1         1 AJ5       0.032367
     38 H12          1.8920     0.8370     0.5860 h1         1 AJ5       0.033200
     39 H13          1.8920     0.0890    -1.0170 h1         1 AJ5       0.033200
     40 H14          0.1620     0.0410     2.1410 hn         1 AJ5       0.321500
     41 H15         -4.3840     0.0010     2.4520 ha         1 AJ5       0.165000
     42 H16         -3.2880    -1.6810     9.9350 ha         1 AJ5       0.141000
     43 H17         -6.4810     0.9020    12.3760 ha         1 AJ5       0.166000
     44 H18         -6.4720     2.4890     8.4980 hn         1 AJ5       0.339500
     45 H19         -0.3340    -0.0110     3.8860 ha         1 AJ5       0.143000
@<TRIPOS>BOND
     1    21    20 2
     2    19    20 1
     3    19    18 2
     4     7    18 1
     5    20    22 1
     6    18     6 1
     7    22    23 1
     8     6    23 ar
     9     6    17 ar
    10    23     8 ar
    11    17     5 ar
    12     8    16 ar
    13     5    16 ar
    14    16    15 1
    15    25    24 1
    16    15    24 ar
    17    15     4 ar
    18    24    26 ar
    19     4    14 ar
    20    26     3 ar
    21    14     3 ar
    22     3     2 1
    23     2    13 2
    24     2    12 1
    25    12     1 1
    26     1    11 1
    27    10    11 1
    28    10     9 1
    29     1    27 1
    30     1    28 1
    31     4    29 1
    32     5    30 1
    33     7    31 1
    34     7    32 1
    35     7    33 1
    36     8    34 1
    37     9    35 1
    38     9    36 1
    39     9    37 1
    40    11    38 1
    41    11    39 1
    42    12    40 1
    43    14    41 1
    44    17    42 1
    45    19    43 1
    46    22    44 1
    47    26    45 1
@<TRIPOS>SUBSTRUCTURE
     1 AJ5         1 TEMP              0 ****  ****    0 ROOT
