@<TRIPOS>MOLECULE
AJ5
   45    47     1     0     0
SMALL
bcc


@<TRIPOS>ATOM
      1 C4           0.0000     0.0000     0.0000 c3         1 AJ5       0.048000
      2 C6          -1.8130    -0.0000     1.6280 c          1 AJ5       0.592700
      3 C8          -2.3060    -0.0010     3.0200 ca         1 AJ5      -0.141600
      4 C10         -4.1390     0.0000     4.5740 ca         1 AJ5      -0.094000
      5 C13         -3.2290    -0.9370     7.9460 ca         1 AJ5      -0.127000
      6 C15         -4.6470    -0.0290     9.6460 ca         1 AJ5      -0.114800
      7 C17         -4.6360    -1.0220    12.0280 c3         1 AJ5       0.051100
      8 C24         -4.6850     0.9260     7.4260 ca         1 AJ5      -0.140000
      9 C1           3.4310    -1.3240     0.6180 c3         1 AJ5       0.256700
     10 O2           2.0060    -1.2210     0.5700 os         1 AJ5      -0.421600
     11 C3           1.5300     0.0000     0.0000 c3         1 AJ5       0.195400
     12 N5          -0.4880     0.0000     1.3820 ns         1 AJ5      -0.189900
     13 O7          -2.6030     0.0010     0.7030 o          1 AJ5      -0.650100
     14 C9          -3.6800     0.0000     3.2760 ca         1 AJ5      -0.033000
     15 C11         -3.2330    -0.0010     5.6350 cp         1 AJ5      -0.017000
     16 C12         -3.7280    -0.0020     7.0310 cp         1 AJ5       0.006000
     17 C14         -3.6790    -0.9540     9.2330 ca         1 AJ5      -0.044000
     18 C16         -5.1520    -0.0290    11.0190 cc         1 AJ5       0.001600
     19 C18         -6.0930     0.8830    11.3650 cd         1 AJ5      -0.219200
     20 C19         -6.5680     1.8100    10.4120 c          1 AJ5       0.593700
     21 O20         -7.4150     2.6220    10.7440 o          1 AJ5      -0.690500
     22 N21         -6.1120     1.8180     9.1470 ns         1 AJ5       0.041900
     23 C23         -5.1550     0.9160     8.7320 ca         1 AJ5      -0.067400
     24 C25         -1.8600    -0.0070     5.3810 ca         1 AJ5      -0.035600
     25 Cl          -0.7330    -0.0100     6.7020 cl         1 AJ5      -0.012400
     26 C27         -1.3990    -0.0060     4.0830 ca         1 AJ5      -0.084000
     27 H1          -0.3610    -0.8850    -0.5110 h1         1 AJ5       0.034700
     28 H2          -0.3610     0.8850    -0.5110 h1         1 AJ5       0.034700
     29 H3          -5.2040     0.0010     4.7720 ha         1 AJ5       0.116000
     30 H4          -2.4830    -1.6560     7.6270 ha         1 AJ5       0.120000
     31 H5          -5.1270    -0.8580    12.9800 hc         1 AJ5       0.015367
     32 H6          -3.5670    -0.8940    12.1470 hc         1 AJ5       0.015367
     33 H7          -4.8430    -2.0280    11.6840 hc         1 AJ5       0.015367
     34 H8          -5.0690     1.6480     6.7150 ha         1 AJ5       0.120000
     35 H9           3.8330    -0.5090     1.2070 h1         1 AJ5      -0.011300
     36 H10          3.7100    -2.2680     1.0700 h1         1 AJ5      -0.011300
     37 H11          3.8310    -1.2740    -0.3880 h1         1 AJ5      -0.011300
     38 H12          1.8920     0.8370     0.5860 h1         1 AJ5      -0.002300
     39 H13          1.8920     0.0890    -1.0170 h1         1 AJ5      -0.002300
     40 H14          0.1620     0.0410     2.1410 hn         1 AJ5       0.184500
     41 H15         -4.3840     0.0010     2.4520 ha         1 AJ5       0.132000
     42 H16         -3.2880    -1.6810     9.9350 ha         1 AJ5       0.113000
     43 H17         -6.4810     0.9020    12.3760 ha         1 AJ5       0.139000
     44 H18         -6.4720     2.4890     8.4980 hn         1 AJ5       0.176500
     45 H19         -0.3340    -0.0110     3.8860 ha         1 AJ5       0.116000
@<TRIPOS>BOND
     1     1    11 1   
     2     1    12 1   
     3     1    27 1   
     4     1    28 1   
     5     2     3 1   
     6     2    12 1   
     7     2    13 2   
     8     3    14 ar  
     9     3    26 ar  
    10     4    14 ar  
    11     4    15 ar  
    12     4    29 1   
    13     5    16 ar  
    14     5    17 ar  
    15     5    30 1   
    16     6    17 ar  
    17     6    18 1   
    18     6    23 ar  
    19     7    18 1   
    20     7    31 1   
    21     7    32 1   
    22     7    33 1   
    23     8    16 ar  
    24     8    23 ar  
    25     8    34 1   
    26     9    10 1   
    27     9    35 1   
    28     9    36 1   
    29     9    37 1   
    30    10    11 1   
    31    11    38 1   
    32    11    39 1   
    33    12    40 1   
    34    14    41 1   
    35    15    16 1   
    36    15    24 ar  
    37    17    42 1   
    38    18    19 2   
    39    19    20 1   
    40    19    43 1   
    41    20    21 2   
    42    20    22 1   
    43    22    23 1   
    44    22    44 1   
    45    24    25 1   
    46    24    26 ar  
    47    26    45 1   
@<TRIPOS>SUBSTRUCTURE
     1 AJ5         1 TEMP              0 ****  ****    0 ROOT
