@<TRIPOS>MOLECULE
AJ6
   33    35     1     0     0
SMALL
bcc


@<TRIPOS>ATOM
      1 C4           0.0000     0.0000     0.0000 c          1 AJ6       0.594700
      2 C8          -0.0710    -0.0100     2.3690 ca         1 AJ6      -0.067400
      3 C10         -0.1350    -0.0300     4.7700 cp         1 AJ6       0.017000
      4 C13         -2.6670     0.8550     7.4010 ca         1 AJ6      -0.113000
      5 C17         -0.6170    -0.9820     7.0230 ca         1 AJ6      -0.018600
      6 C20          1.9920    -0.0160     3.6620 ca         1 AJ6      -0.044000
      7 C21          1.3380    -0.0100     2.4230 ca         1 AJ6      -0.118800
      8 C2           2.0950     0.0000     1.1720 cc         1 AJ6       0.003600
      9 C3           1.4110     0.0000     0.0000 cd         1 AJ6      -0.223200
     10 O5          -0.5940    -0.0010    -1.0640 o          1 AJ6      -0.693500
     11 N6          -0.7050    -0.0050     1.1440 ns         1 AJ6       0.041900
     12 C9          -0.8000    -0.0210     3.5490 ca         1 AJ6      -0.145000
     13 C11         -0.9110    -0.0450     6.0320 cp         1 AJ6      -0.046000
     14 C12         -1.9390     0.8770     6.2310 ca         1 AJ6      -0.075000
     15 C14         -2.3740    -0.0830     8.3860 ca         1 AJ6       0.045600
     16 N15         -3.1130    -0.1020     9.5690 nv         1 AJ6      -0.560200
     17 C16         -1.3480    -1.0000     8.1930 ca         1 AJ6      -0.114000
     18 C19          1.2640    -0.0300     4.8140 ca         1 AJ6      -0.129000
     19 H1          -3.4650     1.5710     7.5560 ha         1 AJ6       0.112000
     20 H2           3.0750    -0.0160     3.7040 ha         1 AJ6       0.112000
     21 H3           3.9590     0.8810     1.7050 hc         1 AJ6       0.015033
     22 H4           3.9610    -0.8880     1.6880 hc         1 AJ6       0.015033
     23 H5           3.9710     0.0110     0.1650 hc         1 AJ6       0.015033
     24 H6           1.9510     0.0000    -0.9390 ha         1 AJ6       0.138000
     25 H7          -1.7050    -0.0050     1.1060 hn         1 AJ6       0.175500
     26 H8          -1.8780    -0.1260     3.5190 ha         1 AJ6       0.119000
     27 H9          -2.1670     1.6080     5.4640 ha         1 AJ6       0.112000
     28 H10         -2.8130     0.4390    10.3550 hn         1 AJ6       0.275800
     29 H11         -3.9370    -0.6660     9.6340 hn         1 AJ6       0.275800
     30 H12         -1.1210    -1.7280     8.9620 ha         1 AJ6       0.121000
     31 H13          1.7720    -0.0370     5.7710 ha         1 AJ6       0.120000
     32 C1           3.6030     0.0010     1.1830 c3         1 AJ6       0.052100
     33 Cl           0.6610    -2.1320     6.7800 cl         1 AJ6      -0.019400
@<TRIPOS>BOND
     1     1     9 1   
     2     1    10 2   
     3     1    11 1   
     4     2     7 ar  
     5     2    11 1   
     6     2    12 ar  
     7     3    12 ar  
     8     3    13 1   
     9     3    18 ar  
    10     4    14 ar  
    11     4    15 ar  
    12     4    19 1   
    13     5    13 ar  
    14     5    17 ar  
    15     5    33 1   
    16     6     7 ar  
    17     6    18 ar  
    18     6    20 1   
    19     7     8 1   
    20     8     9 2   
    21     8    32 1   
    22     9    24 1   
    23    11    25 1   
    24    12    26 1   
    25    13    14 ar  
    26    14    27 1   
    27    15    16 1   
    28    15    17 ar  
    29    16    28 1   
    30    16    29 1   
    31    17    30 1   
    32    18    31 1   
    33    21    32 1   
    34    22    32 1   
    35    23    32 1   
@<TRIPOS>SUBSTRUCTURE
     1 AJ6         1 TEMP              0 ****  ****    0 ROOT
