@<TRIPOS>MOLECULE
molecule
   33    35     1     0     0
SMALL
bcc


@<TRIPOS>ATOM
      1 C4           0.0000     0.0000     0.0000 c          1 AJ6       0.697700
      2 C8          -0.0710    -0.0100     2.3690 ca         1 AJ6       0.089600
      3 C10         -0.1350    -0.0300     4.7700 cp         1 AJ6       0.010000
      4 C13         -2.6670     0.8550     7.4010 ca         1 AJ6      -0.144000
      5 C17         -0.6170    -0.9820     7.0230 ca         1 AJ6       0.044400
      6 C20          1.9920    -0.0160     3.6620 ca         1 AJ6      -0.075000
      7 C21          1.3380    -0.0100     2.4230 ca         1 AJ6      -0.123800
      8 C2           2.0950     0.0000     1.1720 cc         1 AJ6       0.007600
      9 C3           1.4110     0.0000     0.0000 cd         1 AJ6      -0.243200
     10 O5          -0.5940    -0.0010    -1.0640 o          1 AJ6      -0.648500
     11 N6          -0.7050    -0.0050     1.1440 ns         1 AJ6      -0.429100
     12 C9          -0.8000    -0.0210     3.5490 ca         1 AJ6      -0.171000
     13 C11         -0.9110    -0.0450     6.0320 cp         1 AJ6      -0.050000
     14 C12         -1.9390     0.8770     6.2310 ca         1 AJ6      -0.101000
     15 C14         -2.3740    -0.0830     8.3860 ca         1 AJ6       0.179600
     16 N15         -3.1130    -0.1020     9.5690 nv         1 AJ6      -0.989200
     17 C16         -1.3480    -1.0000     8.1930 ca         1 AJ6      -0.140000
     18 C19          1.2640    -0.0300     4.8140 ca         1 AJ6      -0.142000
     19 H1          -3.4650     1.5710     7.5560 ha         1 AJ6       0.143000
     20 H2           3.0750    -0.0160     3.7040 ha         1 AJ6       0.140000
     21 H3           3.9590     0.8810     1.7050 hc         1 AJ6       0.052367
     22 H4           3.9610    -0.8880     1.6880 hc         1 AJ6       0.052367
     23 H5           3.9710     0.0110     0.1650 hc         1 AJ6       0.052367
     24 H6           1.9510     0.0000    -0.9390 ha         1 AJ6       0.165000
     25 H7          -1.7050    -0.0050     1.1060 hn         1 AJ6       0.338500
     26 H8          -1.8780    -0.1260     3.5190 ha         1 AJ6       0.142000
     27 H9          -2.1670     1.6080     5.4640 ha         1 AJ6       0.143000
     28 H10         -2.8130     0.4390    10.3550 hn         1 AJ6       0.431800
     29 H11         -3.9370    -0.6660     9.6340 hn         1 AJ6       0.431800
     30 H12         -1.1210    -1.7280     8.9620 ha         1 AJ6       0.152000
     31 H13          1.7720    -0.0370     5.7710 ha         1 AJ6       0.146000
     32 C1           3.6030     0.0010     1.1830 c3         1 AJ6      -0.057900
     33 Cl           0.6610    -2.1320     6.7800 cl         1 AJ6      -0.102400
@<TRIPOS>BOND
     1    16    15 1
     2    15    17 ar
     3    15     4 ar
     4    17     5 ar
     5     4    14 ar
     6     5    13 ar
     7     5    33 1
     8    14    13 ar
     9    13     3 1
    10     3    18 ar
    11     3    12 ar
    12    18     6 ar
    13    12     2 ar
    14     6     7 ar
    15     2     7 ar
    16     2    11 1
    17     7     8 1
    18    11     1 1
    19     8    32 1
    20     8     9 2
    21     1     9 1
    22     1    10 2
    23     4    19 1
    24     6    20 1
    25    32    21 1
    26    32    22 1
    27    32    23 1
    28     9    24 1
    29    11    25 1
    30    12    26 1
    31    14    27 1
    32    16    28 1
    33    16    29 1
    34    17    30 1
    35    18    31 1
@<TRIPOS>SUBSTRUCTURE
     1 AJ6         1 TEMP              0 ****  ****    0 ROOT
