@<TRIPOS>MOLECULE
AJ7
   54    57     1     0     0
SMALL
bcc


@<TRIPOS>ATOM
      1 C4           0.0000     0.0000     0.0000 c          1 AJ7       0.594700
      2 C8          -0.0700    -0.0020     2.3700 ca         1 AJ7      -0.066400
      3 C10         -0.1340    -0.0030     4.7710 cp         1 AJ7       0.005000
      4 C13         -2.6740     0.9060     7.3850 ca         1 AJ7      -0.033000
      5 C15         -3.1440    -0.0140     9.6500 c          1 AJ7       0.594700
      6 C21         -5.2540    -2.4000    13.8040 c3         1 AJ7       0.106300
      7 C22         -6.0340    -2.3300    15.1200 c3         1 AJ7       0.215900
      8 C24         -4.0330    -2.7990    16.3520 c3         1 AJ7       0.215900
      9 C26         -1.3350    -0.9330     8.2080 ca         1 AJ7      -0.085000
     10 C2           2.0950     0.0000     1.1720 cc         1 AJ7       0.002600
     11 C3           1.4110     0.0000     0.0000 cd         1 AJ7      -0.220200
     12 O5          -0.5940    -0.0050    -1.0640 o          1 AJ7      -0.689500
     13 N6          -0.7050    -0.0010     1.1460 ns         1 AJ7       0.040900
     14 C9          -0.8000    -0.0020     3.5510 ca         1 AJ7      -0.140000
     15 C11         -0.9100    -0.0040     6.0330 cp         1 AJ7      -0.016000
     16 C12         -1.9490     0.9110     6.2150 ca         1 AJ7      -0.093000
     17 C14         -2.3700    -0.0140     8.3920 ca         1 AJ7      -0.143600
     18 O16         -4.0460     0.7850     9.8100 o          1 AJ7      -0.644100
     19 N17         -2.8530    -0.9020    10.6200 ns         1 AJ7      -0.197900
     20 C18         -3.6210    -0.9030    11.8690 c3         1 AJ7       0.041000
     21 C19         -3.0900    -1.9990    12.7940 c3         1 AJ7       0.141800
     22 N20         -3.8600    -2.0010    14.0450 n3         1 AJ7      -0.529600
     23 O23         -5.3930    -3.1600    16.0920 os         1 AJ7      -0.411600
     24 C25         -3.2340    -2.8730    15.0480 c3         1 AJ7       0.106300
     25 C27         -0.6130    -0.9320     7.0350 ca         1 AJ7      -0.036600
     26 Cl           0.6670    -2.0810     6.8000 cl         1 AJ7      -0.011400
     27 C29          1.2650    -0.0020     4.8150 ca         1 AJ7      -0.127000
     28 C30          1.9930    -0.0010     3.6620 ca         1 AJ7      -0.043000
     29 C31          1.3380    -0.0010     2.4230 ca         1 AJ7      -0.115800
     30 H1          -3.4790     1.6170     7.5260 ha         1 AJ7       0.133000
     31 H3          -5.7030    -1.7260    13.0840 h1         1 AJ7       0.019200
     32 H4          -6.0510    -1.3060    15.4750 h1         1 AJ7       0.014450
     33 H5          -7.0460    -2.6800    14.9580 h1         1 AJ7       0.014450
     34 H6          -3.9960    -1.7880    16.7410 h1         1 AJ7       0.014450
     35 H7          -3.6090    -3.4860    17.0750 h1         1 AJ7       0.014450
     36 H8          -1.1010    -1.6490     8.9870 ha         1 AJ7       0.113000
     37 H12          1.9500     0.0000    -0.9400 ha         1 AJ7       0.139000
     38 H13         -1.7050    -0.0010     1.1090 hn         1 AJ7       0.176500
     39 H14         -1.8770    -0.1140     3.5220 ha         1 AJ7       0.120000
     40 H15         -2.1840     1.6240     5.4350 ha         1 AJ7       0.118000
     41 H16         -2.1070    -1.5580    10.4910 hn         1 AJ7       0.178500
     42 H17         -4.6650    -1.0900    11.6500 h1         1 AJ7       0.036700
     43 H18         -3.5200     0.0590    12.3550 h1         1 AJ7       0.036700
     44 H19         -2.0450    -1.8120    13.0130 h1         1 AJ7       0.010700
     45 H20         -3.1900    -2.9620    12.3070 h1         1 AJ7       0.010700
     46 H21         -2.2180    -2.5440    15.2290 h1         1 AJ7       0.019200
     47 H22         -3.2300    -3.8940    14.6860 h1         1 AJ7       0.019200
     48 H23          1.7730    -0.0020     5.7720 ha         1 AJ7       0.120000
     49 H24          3.0750    -0.0000     3.7030 ha         1 AJ7       0.113000
     50 C1           3.6020     0.0020     1.1820 c3         1 AJ7       0.052100
     51 H2          -5.2790    -3.4140    13.4240 h1         1 AJ7       0.019200
     52 H9           3.9710     0.0030     0.1640 hc         1 AJ7       0.015367
     53 H10          3.9590     0.8860     1.6960 hc         1 AJ7       0.015367
     54 H11          3.9610    -0.8830     1.6950 hc         1 AJ7       0.015367
@<TRIPOS>BOND
     1     1    11 1   
     2     1    12 2   
     3     1    13 1   
     4     2    13 1   
     5     2    14 ar  
     6     2    29 ar  
     7     3    14 ar  
     8     3    15 1   
     9     3    27 ar  
    10     4    16 ar  
    11     4    17 ar  
    12     4    30 1   
    13     5    17 1   
    14     5    18 2   
    15     5    19 1   
    16     6     7 1   
    17     6    22 1   
    18     6    31 1   
    19     6    51 1   
    20     7    23 1   
    21     7    32 1   
    22     7    33 1   
    23     8    23 1   
    24     8    24 1   
    25     8    34 1   
    26     8    35 1   
    27     9    17 ar  
    28     9    25 ar  
    29     9    36 1   
    30    10    11 2   
    31    10    29 1   
    32    10    50 1   
    33    11    37 1   
    34    13    38 1   
    35    14    39 1   
    36    15    16 ar  
    37    15    25 ar  
    38    16    40 1   
    39    19    20 1   
    40    19    41 1   
    41    20    21 1   
    42    20    42 1   
    43    20    43 1   
    44    21    22 1   
    45    21    44 1   
    46    21    45 1   
    47    22    24 1   
    48    24    46 1   
    49    24    47 1   
    50    25    26 1   
    51    27    28 ar  
    52    27    48 1   
    53    28    29 ar  
    54    28    49 1   
    55    50    52 1   
    56    50    53 1   
    57    50    54 1   
@<TRIPOS>SUBSTRUCTURE
     1 AJ7         1 TEMP              0 ****  ****    0 ROOT
