@<TRIPOS>MOLECULE
molecule
   54    57     1     0     0
SMALL
bcc


@<TRIPOS>ATOM
      1 C4           0.0000     0.0000     0.0000 c          1 AJ7       0.696700
      2 C8          -0.0700    -0.0020     2.3700 ca         1 AJ7       0.089600
      3 C10         -0.1340    -0.0030     4.7710 cp         1 AJ7      -0.001000
      4 C13         -2.6740     0.9060     7.3850 ca         1 AJ7      -0.066000
      5 C15         -3.1440    -0.0140     9.6500 c          1 AJ7       0.674700
      6 C21         -5.2540    -2.4000    13.8040 c3         1 AJ7       0.121800
      7 C22         -6.0340    -2.3300    15.1200 c3         1 AJ7       0.139900
      8 C24         -4.0330    -2.7990    16.3520 c3         1 AJ7       0.139900
      9 C26         -1.3350    -0.9330     8.2080 ca         1 AJ7      -0.101000
     10 C2           2.0950     0.0000     1.1720 cc         1 AJ7       0.006600
     11 C3           1.4110     0.0000     0.0000 cd         1 AJ7      -0.240200
     12 O5          -0.5940    -0.0050    -1.0640 o          1 AJ7      -0.644500
     13 N6          -0.7050    -0.0010     1.1460 ns         1 AJ7      -0.429100
     14 C9          -0.8000    -0.0020     3.5510 ca         1 AJ7      -0.166000
     15 C11         -0.9100    -0.0040     6.0330 cp         1 AJ7      -0.016000
     16 C12         -1.9490     0.9110     6.2150 ca         1 AJ7      -0.117000
     17 C14         -2.3700    -0.0140     8.3920 ca         1 AJ7      -0.134600
     18 O16         -4.0460     0.7850     9.8100 o          1 AJ7      -0.601100
     19 N17         -2.8530    -0.9020    10.6200 ns         1 AJ7      -0.584900
     20 C18         -3.6210    -0.9030    11.8690 c3         1 AJ7       0.111000
     21 C19         -3.0900    -1.9990    12.7940 c3         1 AJ7       0.144800
     22 N20         -3.8600    -2.0010    14.0450 n3         1 AJ7      -0.724600
     23 O23         -5.3930    -3.1600    16.0920 os         1 AJ7      -0.424600
     24 C25         -3.2340    -2.8730    15.0480 c3         1 AJ7       0.121800
     25 C27         -0.6130    -0.9320     7.0350 ca         1 AJ7       0.027400
     26 Cl           0.6670    -2.0810     6.8000 cl         1 AJ7      -0.095400
     27 C29          1.2650    -0.0020     4.8150 ca         1 AJ7      -0.140000
     28 C30          1.9930    -0.0010     3.6620 ca         1 AJ7      -0.075000
     29 C31          1.3380    -0.0010     2.4230 ca         1 AJ7      -0.119800
     30 H1          -3.4790     1.6170     7.5260 ha         1 AJ7       0.166000
     31 H3          -5.7030    -1.7260    13.0840 h1         1 AJ7       0.044950
     32 H4          -6.0510    -1.3060    15.4750 h1         1 AJ7       0.055700
     33 H5          -7.0460    -2.6800    14.9580 h1         1 AJ7       0.055700
     34 H6          -3.9960    -1.7880    16.7410 h1         1 AJ7       0.055700
     35 H7          -3.6090    -3.4860    17.0750 h1         1 AJ7       0.055700
     36 H8          -1.1010    -1.6490     8.9870 ha         1 AJ7       0.140000
     37 H12          1.9500     0.0000    -0.9400 ha         1 AJ7       0.166000
     38 H13         -1.7050    -0.0010     1.1090 hn         1 AJ7       0.339500
     39 H14         -1.8770    -0.1140     3.5220 ha         1 AJ7       0.143000
     40 H15         -2.1840     1.6240     5.4350 ha         1 AJ7       0.150000
     41 H16         -2.1070    -1.5580    10.4910 hn         1 AJ7       0.313500
     42 H17         -4.6650    -1.0900    11.6500 h1         1 AJ7       0.063700
     43 H18         -3.5200     0.0590    12.3550 h1         1 AJ7       0.063700
     44 H19         -2.0450    -1.8120    13.0130 h1         1 AJ7       0.037700
     45 H20         -3.1900    -2.9620    12.3070 h1         1 AJ7       0.037700
     46 H21         -2.2180    -2.5440    15.2290 h1         1 AJ7       0.044950
     47 H22         -3.2300    -3.8940    14.6860 h1         1 AJ7       0.044950
     48 H23          1.7730    -0.0020     5.7720 ha         1 AJ7       0.146000
     49 H24          3.0750    -0.0000     3.7030 ha         1 AJ7       0.141000
     50 C1           3.6020     0.0020     1.1820 c3         1 AJ7      -0.058900
     51 H2          -5.2790    -3.4140    13.4240 h1         1 AJ7       0.044950
     52 H9           3.9710     0.0030     0.1640 hc         1 AJ7       0.053033
     53 H10          3.9590     0.8860     1.6960 hc         1 AJ7       0.053033
     54 H11          3.9610    -0.8830     1.6950 hc         1 AJ7       0.053033
@<TRIPOS>BOND
     1    12     1 2
     2    11     1 1
     3    11    10 2
     4    50    10 1
     5     1    13 1
     6    10    29 1
     7    13     2 1
     8    29     2 ar
     9    29    28 ar
    10     2    14 ar
    11    28    27 ar
    12    14     3 ar
    13    27     3 ar
    14     3    15 1
    15    26    25 1
    16    15    25 ar
    17    15    16 ar
    18    25     9 ar
    19    16     4 ar
    20     9    17 ar
    21     4    17 ar
    22    17     5 1
    23     5    18 2
    24     5    19 1
    25    19    20 1
    26    20    21 1
    27    21    22 1
    28    22    24 1
    29    22     6 1
    30    24     8 1
    31     6     7 1
    32     8    23 1
    33     7    23 1
    34     4    30 1
    35     6    51 1
    36     6    31 1
    37     7    32 1
    38     7    33 1
    39     8    34 1
    40     8    35 1
    41     9    36 1
    42    50    52 1
    43    50    53 1
    44    50    54 1
    45    11    37 1
    46    13    38 1
    47    14    39 1
    48    16    40 1
    49    19    41 1
    50    20    42 1
    51    20    43 1
    52    21    44 1
    53    21    45 1
    54    24    46 1
    55    24    47 1
    56    27    48 1
    57    28    49 1
@<TRIPOS>SUBSTRUCTURE
     1 AJ7         1 TEMP              0 ****  ****    0 ROOT
