@<TRIPOS>MOLECULE
AJ8
   33    35     1     0     0
SMALL
bcc


@<TRIPOS>ATOM
      1 C4           0.0000     0.0000     0.0000 c          1 AJ8       0.597700
      2 C8          -0.0700    -0.0080     2.3700 ca         1 AJ8      -0.067400
      3 C10         -0.1350    -0.0270     4.7710 cp         1 AJ8       0.062000
      4 C13         -1.3350    -0.9890     8.1970 ca         1 AJ8      -0.082000
      5 C15         -3.1410    -0.0820     9.6510 c          1 AJ8       0.968200
      6 C21          1.2640    -0.0270     4.8150 ca         1 AJ8      -0.126000
      7 C22          1.9910    -0.0150     3.6620 ca         1 AJ8      -0.059000
      8 C2           2.0940     0.0000     1.1720 cc         1 AJ8       0.014600
      9 C3           1.4110     0.0000     0.0000 cd         1 AJ8      -0.244200
     10 O5          -0.5950    -0.0010    -1.0640 o          1 AJ8      -0.718500
     11 N6          -0.7060    -0.0040     1.1440 ns         1 AJ8       0.047900
     12 C9          -0.8010    -0.0170     3.5500 ca         1 AJ8      -0.156000
     13 C11         -0.9120    -0.0400     6.0330 cp         1 AJ8      -0.099000
     14 C12         -0.6140    -0.9750     7.0240 ca         1 AJ8      -0.109000
     15 C14         -2.3680    -0.0680     8.3930 ca         1 AJ8      -0.076600
     16 O16         -4.1360     0.8070     9.8410 o          1 AJ8      -0.875300
     17 O17         -2.8790    -0.8940    10.5160 o          1 AJ8      -0.875300
     18 C18         -2.6690     0.8660     7.3990 ca         1 AJ8      -0.066000
     19 C19         -1.9480     0.8780     6.2250 ca         1 AJ8      -0.031600
     20 Cl          -2.3200     2.0380     4.9880 cl         1 AJ8      -0.076400
     21 C23          1.3370    -0.0090     2.4230 ca         1 AJ8      -0.138800
     22 H1          -1.1040    -1.7160     8.9660 ha         1 AJ8       0.126000
     23 H2           1.7720    -0.0340     5.7720 ha         1 AJ8       0.116000
     24 H3           3.0740    -0.0150     3.7040 ha         1 AJ8       0.103000
     25 H4           3.9710     0.0070     0.1640 hc         1 AJ8       0.011700
     26 H5           3.9600     0.8790     1.7040 hc         1 AJ8       0.011700
     27 H6           3.9590    -0.8900     1.6890 hc         1 AJ8       0.011700
     28 H7           1.9500     0.0000    -0.9390 ha         1 AJ8       0.131000
     29 H8          -1.7060    -0.0030     1.1070 hn         1 AJ8       0.175500
     30 H9          -1.8840    -0.0170     3.5200 ha         1 AJ8       0.132000
     31 H10          0.1860    -1.6890     6.8730 ha         1 AJ8       0.094000
     32 H12         -3.4710     1.5790     7.5490 ha         1 AJ8       0.145000
     33 C1           3.6020    -0.0010     1.1830 c3         1 AJ8       0.051100
@<TRIPOS>BOND
     1     1     9 1   
     2     1    10 2   
     3     1    11 1   
     4     2    11 1   
     5     2    12 ar  
     6     2    21 ar  
     7     3     6 ar  
     8     3    12 ar  
     9     3    13 1   
    10     4    14 ar  
    11     4    15 ar  
    12     4    22 1   
    13     5    15 1   
    14     5    16 1   
    15     5    17 1   
    16     6     7 ar  
    17     6    23 1   
    18     7    21 ar  
    19     7    24 1   
    20     8     9 2   
    21     8    21 1   
    22     8    33 1   
    23     9    28 1   
    24    11    29 1   
    25    12    30 1   
    26    13    14 ar  
    27    13    19 ar  
    28    14    31 1   
    29    15    18 ar  
    30    18    19 ar  
    31    18    32 1   
    32    19    20 1   
    33    25    33 1   
    34    26    33 1   
    35    27    33 1   
@<TRIPOS>SUBSTRUCTURE
     1 AJ8         1 TEMP              0 ****  ****    0 ROOT
