@<TRIPOS>MOLECULE
AJA
   64    66     1     0     0
SMALL
bcc


@<TRIPOS>ATOM
      1 O27         0.5470   -0.9800    0.2650 o         1 AJA     -0.836800
      2 C16         1.5870   -0.2660    0.1960 c         1 AJA      0.902800
      3 O26         2.0570    0.3890    1.1720 o         1 AJA     -0.836800
      4 C10         2.3210   -0.1860   -1.1360 ce        1 AJA     -0.146400
      5 C9          3.6140    0.5470   -1.1210 c3        1 AJA     -0.033200
      6 C8          4.0970    0.9060   -2.5260 c3        1 AJA     -0.004400
      7 C7          5.4950    1.4260   -2.5540 ca        1 AJA     -0.143300
      8 C6          5.9570    2.4160   -1.6670 ca        1 AJA      0.157100
      9 O15         5.0320    3.0180   -0.8460 oh        1 AJA     -0.481100
     10 C5          7.3000    2.8290   -1.6470 ca        1 AJA     -0.248000
     11 C4          8.2170    2.2870   -2.5490 ca        1 AJA     -0.019300
     12 C19         9.6690    2.6920   -2.5550 c3        1 AJA     -0.002700
     13 C25         9.9960    3.7070   -1.4670 c3        1 AJA     -0.085100
     14 C20        10.5680    1.4600   -2.3840 c3        1 AJA     -0.065400
     15 C21        10.3640    0.7410   -1.0680 c3        1 AJA     -0.082400
     16 C22        11.1270   -0.5670   -1.0390 c3        1 AJA     -0.076400
     17 C23        10.9480   -1.2740    0.2870 c3        1 AJA     -0.080400
     18 C28        11.7020   -2.5870    0.3180 c3        1 AJA     -0.079400
     19 C29        11.5250   -3.2950    1.6370 c3        1 AJA     -0.092100
     20 C24         9.9950    3.3350   -3.9050 c3        1 AJA     -0.085100
     21 C3          7.7670    1.3630   -3.4960 ca        1 AJA     -0.200000
     22 C2          6.4220    0.9540   -3.5010 ca        1 AJA      0.156100
     23 O1          6.1100    0.0470   -4.4920 os        1 AJA     -0.340900
     24 C14         4.6940   -0.1570   -4.7450 c3        1 AJA      0.156800
     25 C18         4.6590   -1.4390   -5.5730 c3        1 AJA     -0.099100
     26 C17         4.1780    1.0130   -5.5700 c3        1 AJA     -0.099100
     27 C13         3.9680   -0.3380   -3.4110 c3        1 AJA     -0.084700
     28 C12         2.4990   -0.7050   -3.5640 c3        1 AJA     -0.022200
     29 C11         1.8230   -0.7510   -2.2440 c2        1 AJA     -0.222200
     30 H91         3.4840    1.4790   -0.5040 hc        1 AJA      0.070700
     31 H92         4.3820   -0.0850   -0.6020 hc        1 AJA      0.070700
     32 H8          3.4190    1.7140   -2.9280 hc        1 AJA      0.060700
     33 HO15        5.5030    3.3930   -0.0880 ho        1 AJA      0.414000
     34 H5          7.6030    3.5830   -0.9080 ha        1 AJA      0.128000
     35 H251        9.7280    3.3100   -0.4590 hc        1 AJA      0.033867
     36 H252       11.0900    3.9320   -1.4780 hc        1 AJA      0.033867
     37 H253        9.4380    4.6580   -1.6410 hc        1 AJA      0.033867
     38 H201       10.3680    0.7480   -3.2280 hc        1 AJA      0.036700
     39 H202       11.6380    1.7860   -2.4680 hc        1 AJA      0.036700
     40 H211        9.2700    0.5440   -0.9130 hc        1 AJA      0.049200
     41 H212       10.7100    1.3910   -0.2210 hc        1 AJA      0.049200
     42 H221       12.2170   -0.3730   -1.2190 hc        1 AJA      0.034700
     43 H222       10.7660   -1.2300   -1.8690 hc        1 AJA      0.034700
     44 H231        9.8560   -1.4640    0.4670 hc        1 AJA      0.043700
     45 H232       11.3090   -0.6140    1.1190 hc        1 AJA      0.043700
     46 H281       12.7930   -2.3960    0.1360 hc        1 AJA      0.035200
     47 H282       11.3380   -3.2450   -0.5140 hc        1 AJA      0.035200
     48 H291       10.4450   -3.5140    1.8240 hc        1 AJA      0.031367
     49 H292       12.0860   -4.2600    1.6390 hc        1 AJA      0.031367
     50 H293       11.9040   -2.6650    2.4770 hc        1 AJA      0.031367
     51 H241       11.0610    3.6650   -3.9230 hc        1 AJA      0.033867
     52 H242        9.3410    4.2230   -4.0740 hc        1 AJA      0.033867
     53 H243        9.8310    2.6080   -4.7350 hc        1 AJA      0.033867
     54 H3          8.4480    0.9380   -4.2460 ha        1 AJA      0.138000
     55 H181        5.3680   -1.3580   -6.4310 hc        1 AJA      0.043033
     56 H182        3.6250   -1.5950   -5.9620 hc        1 AJA      0.043033
     57 H183        4.9530   -2.3120   -4.9450 hc        1 AJA      0.043033
     58 H171        4.7720    1.1040   -6.5110 hc        1 AJA      0.043033
     59 H172        3.1060    0.8520   -5.8310 hc        1 AJA      0.043033
     60 H173        4.2740    1.9640   -4.9940 hc        1 AJA      0.043033
     61 H13         4.4830   -1.1890   -2.8770 hc        1 AJA      0.067700
     62 H121        1.9810    0.0440   -4.2220 hc        1 AJA      0.025200
     63 H122        2.4190   -1.7050   -4.0700 hc        1 AJA      0.025200
     64 H11         0.8600   -1.2840   -2.2050 ha        1 AJA      0.142000
@<TRIPOS>BOND
     1    1    2 1   
     2    2    3 1   
     3    2    4 1   
     4    4    5 1   
     5    4   29 2   
     6    5    6 1   
     7    5   30 1   
     8    5   31 1   
     9    6    7 1   
    10    6   27 1   
    11    6   32 1   
    12    7    8 ar  
    13    7   22 ar  
    14    8    9 1   
    15    8   10 ar  
    16    9   33 1   
    17   10   11 ar  
    18   10   34 1   
    19   11   12 1   
    20   11   21 ar  
    21   12   13 1   
    22   12   14 1   
    23   12   20 1   
    24   13   35 1   
    25   13   36 1   
    26   13   37 1   
    27   14   15 1   
    28   14   38 1   
    29   14   39 1   
    30   15   16 1   
    31   15   40 1   
    32   15   41 1   
    33   16   17 1   
    34   16   42 1   
    35   16   43 1   
    36   17   18 1   
    37   17   44 1   
    38   17   45 1   
    39   18   19 1   
    40   18   46 1   
    41   18   47 1   
    42   19   48 1   
    43   19   49 1   
    44   19   50 1   
    45   20   51 1   
    46   20   52 1   
    47   20   53 1   
    48   21   22 ar  
    49   21   54 1   
    50   22   23 1   
    51   23   24 1   
    52   24   25 1   
    53   24   26 1   
    54   24   27 1   
    55   25   55 1   
    56   25   56 1   
    57   25   57 1   
    58   26   58 1   
    59   26   59 1   
    60   26   60 1   
    61   27   28 1   
    62   27   61 1   
    63   28   29 1   
    64   28   62 1   
    65   28   63 1   
    66   29   64 1   
@<TRIPOS>SUBSTRUCTURE
     1 AJA         1 TEMP              0 ****  ****    0 ROOT
