@<TRIPOS>MOLECULE
molecule
   64    66     1     0     0
SMALL
bcc


@<TRIPOS>ATOM
      1 O27          0.0000     0.0000     0.0000 o          1 AJA      -0.840300
      2 C16          1.2180     0.0000     0.0000 c          1 AJA       0.887800
      3 O26          2.0100     0.0000     1.0920 o          1 AJA      -0.840300
      4 C10          2.0480     0.0010    -1.2080 ce         1 AJA      -0.123400
      5 C9           3.3840     0.6810    -1.1590 c3         1 AJA      -0.001200
      6 C8           3.9830     0.9320    -2.5630 c3         1 AJA      -0.015400
      7 C7           5.4340     1.3600    -2.5440 ca         1 AJA      -0.141300
      8 C6           5.9000     2.3050    -1.6140 ca         1 AJA       0.155100
      9 O15          5.0780     2.9390    -0.7280 oh         1 AJA      -0.496100
     10 C5           7.2380     2.7010    -1.5970 ca         1 AJA      -0.225000
     11 C4           8.1320     2.1670    -2.5180 ca         1 AJA      -0.029300
     12 C19          9.5630     2.5850    -2.5030 c3         1 AJA      -0.012700
     13 C25          9.9510     3.6220    -1.3920 c3         1 AJA      -0.082600
     14 C20         10.5610     1.3660    -2.3620 c3         1 AJA      -0.062400
     15 C21         10.4070     0.5720    -1.0560 c3         1 AJA      -0.081400
     16 C22         11.4170    -0.5750    -0.9240 c3         1 AJA      -0.076400
     17 C23         11.2540    -1.3850     0.3630 c3         1 AJA      -0.077400
     18 C28         12.2780    -2.5180     0.4380 c3         1 AJA      -0.082400
     19 C29         12.1010    -3.3470     1.7000 c3         1 AJA      -0.090100
     20 C24          9.9270     3.2980    -3.8480 c3         1 AJA      -0.082600
     21 C3           7.6840     1.2500    -3.4650 ca         1 AJA      -0.183000
     22 C2           6.3400     0.8610    -3.4900 ca         1 AJA       0.159100
     23 O1           6.0090    -0.0270    -4.4780 os         1 AJA      -0.337900
     24 C14          4.6050    -0.2190    -4.7520 c3         1 AJA       0.152800
     25 C18          4.4560    -1.4160    -5.7080 c3         1 AJA      -0.096100
     26 C17          4.1800     1.0420    -5.5240 c3         1 AJA      -0.096100
     27 C13          3.8140    -0.3400    -3.4250 c3         1 AJA      -0.084700
     28 C12          2.3170    -0.6740    -3.5920 c3         1 AJA      -0.017200
     29 C11          1.5520    -0.5920    -2.3020 c2         1 AJA      -0.242200
     30 H91          4.0660     0.0440    -0.6100 hc         1 AJA       0.074700
     31 H92          3.2560     1.6400    -0.6710 hc         1 AJA       0.074700
     32 H8           3.4120     1.7250    -3.0290 hc         1 AJA       0.050700
     33 HO15         5.1050     3.8680    -0.8830 ho         1 AJA       0.410000
     34 H5           7.5730     3.4470    -0.8870 ha         1 AJA       0.134000
     35 H251        11.0260     3.7590    -1.3860 hc         1 AJA       0.033200
     36 H252         9.6290     3.2540    -0.4260 hc         1 AJA       0.033200
     37 H253         9.4670     4.5690    -1.5970 hc         1 AJA       0.033200
     38 H201        10.3990     0.6920    -3.1950 hc         1 AJA       0.034700
     39 H202        11.5740     1.7440    -2.4170 hc         1 AJA       0.034700
     40 H211         9.4060     0.1600    -1.0150 hc         1 AJA       0.048700
     41 H212        10.5390     1.2490    -0.2200 hc         1 AJA       0.048700
     42 H221        11.2970    -1.2400    -1.7710 hc         1 AJA       0.032200
     43 H222        12.4170    -0.1600    -0.9480 hc         1 AJA       0.032200
     44 H231        10.2560    -1.8070     0.3930 hc         1 AJA       0.044200
     45 H232        11.3870    -0.7300     1.2140 hc         1 AJA       0.044200
     46 H281        13.2750    -2.0940     0.4300 hc         1 AJA       0.034700
     47 H282        12.1600    -3.1600    -0.4270 hc         1 AJA       0.034700
     48 H291        12.8560    -4.1230     1.7310 hc         1 AJA       0.031700
     49 H292        12.2030    -2.7090     2.5690 hc         1 AJA       0.031700
     50 H293        11.1170    -3.8010     1.6980 hc         1 AJA       0.031700
     51 H241         9.9110     2.5750    -4.6560 hc         1 AJA       0.033200
     52 H242        10.9170     3.7310    -3.7710 hc         1 AJA       0.033200
     53 H243         9.2050     4.0800    -4.0500 hc         1 AJA       0.033200
     54 H3           8.3780     0.8370    -4.1860 ha         1 AJA       0.136000
     55 H181         4.5740    -2.3380    -5.1520 hc         1 AJA       0.041200
     56 H182         3.4740    -1.3930    -6.1650 hc         1 AJA       0.041200
     57 H183         5.2140    -1.3600    -6.4790 hc         1 AJA       0.041200
     58 H171         4.7990     1.1520    -6.4060 hc         1 AJA       0.041200
     59 H172         4.2990     1.9120    -4.8880 hc         1 AJA       0.041200
     60 H173         3.1420     0.9510    -5.8200 hc         1 AJA       0.041200
     61 H13          4.2570    -1.1590    -2.8710 hc         1 AJA       0.063700
     62 H121         2.2270    -1.6790    -3.9860 hc         1 AJA       0.024700
     63 H122         1.8830     0.0230    -4.2990 hc         1 AJA       0.024700
     64 H11          0.5610    -1.0280    -2.2550 ha         1 AJA       0.140000
@<TRIPOS>BOND
     1     1     2 1
     2     2     3 1
     3     2     4 1
     4     4    29 2
     5     4     5 1
     6     5     6 1
     7     5    30 1
     8     5    31 1
     9     6    27 1
    10     6     7 1
    11     6    32 1
    12     7    22 ar
    13     7     8 ar
    14     8    10 ar
    15     8     9 1
    16     9    33 1
    17    10    11 ar
    18    10    34 1
    19    11    21 ar
    20    11    12 1
    21    12    20 1
    22    12    13 1
    23    12    14 1
    24    13    35 1
    25    13    36 1
    26    13    37 1
    27    14    15 1
    28    14    38 1
    29    14    39 1
    30    15    16 1
    31    15    40 1
    32    15    41 1
    33    16    17 1
    34    16    42 1
    35    16    43 1
    36    17    18 1
    37    17    44 1
    38    17    45 1
    39    18    19 1
    40    18    46 1
    41    18    47 1
    42    19    48 1
    43    19    49 1
    44    19    50 1
    45    20    51 1
    46    20    52 1
    47    20    53 1
    48    21    22 ar
    49    21    54 1
    50    22    23 1
    51    23    24 1
    52    24    26 1
    53    24    27 1
    54    24    25 1
    55    25    55 1
    56    25    56 1
    57    25    57 1
    58    26    58 1
    59    26    59 1
    60    26    60 1
    61    27    28 1
    62    27    61 1
    63    28    29 1
    64    28    62 1
    65    28    63 1
    66    29    64 1
@<TRIPOS>SUBSTRUCTURE
     1 AJA         1 TEMP              0 ****  ****    0 ROOT
