@<TRIPOS>MOLECULE
AJB
   37    39     1     0     0
SMALL
bcc


@<TRIPOS>ATOM
      1 C4           0.0000     0.0000     0.0000 ca         1 AJB      -0.148000
      2 C5           1.3760     0.0000     2.4210 ca         1 AJB      -0.002000
      3 C6           8.0470     0.0800     2.0200 cc         1 AJB      -0.169400
      4 C7          -1.5340     3.6890     5.0260 cc         1 AJB       0.198400
      5 C8           7.6590     0.2150     3.2890 cd         1 AJB       0.350600
      6 C10          1.3890     0.0000     0.0000 ca         1 AJB       0.151600
      7 C13         -1.0560     1.7370     4.1860 cc         1 AJB       0.302800
      8 C1           8.6350     0.3350     4.4310 c3         1 AJB      -0.015400
      9 C3          -0.6940     0.0000     1.1930 ca         1 AJB       0.007000
     10 C9          -0.0090     0.0010     2.4040 ca         1 AJB       0.016900
     11 C11          2.0860     0.0000     1.2180 ca         1 AJB      -0.199600
     12 C12          5.6150     0.1220     2.4030 cc         1 AJB       0.406300
     13 C14          3.5600    -0.0010     1.2280 c          1 AJB       0.577700
     14 N15          2.0870    -0.0010    -1.2040 nv         1 AJB      -0.551200
     15 N16         -0.8940     3.8370     3.9010 nd         1 AJB      -0.312000
     16 N17          6.3510     0.2330     3.4650 nd         1 AJB      -0.623000
     17 N18         -0.6100     2.6890     3.4000 nd         1 AJB      -0.335000
     18 N19          4.2260     0.1220     2.3930 ns         1 AJB      -0.060400
     19 N20         -1.6610     2.3460     5.2480 na         1 AJB       0.156300
     20 O21          4.1750    -0.1110     0.1840 o          1 AJB      -0.603100
     21 S22          6.6030    -0.0250     1.0150 ss         1 AJB      -0.222300
     22 S23         -0.9060     0.0020     3.9200 ss         1 AJB      -0.349200
     23 H4          -0.5400    -0.0000    -0.9390 ha         1 AJB       0.119000
     24 H5           1.9070     0.0010     3.3650 ha         1 AJB       0.114000
     25 H6           9.0710     0.0420     1.6690 h4         1 AJB       0.160000
     26 H7          -1.8990     4.4830     5.6660 h5         1 AJB       0.034100
     27 H1           9.2340     1.2280     4.3010 hc         1 AJB       0.011367
     28 H1A          8.0910     0.3980     5.3660 hc         1 AJB       0.011367
     29 H1B          9.2810    -0.5340     4.4470 hc         1 AJB       0.011367
     30 H2          -2.8580     2.4330     6.9630 h1         1 AJB       0.030367
     31 H2A         -2.9950     0.9360     6.0300 h1         1 AJB       0.030367
     32 H2B         -1.5580     1.2350     7.0190 h1         1 AJB       0.030367
     33 H3          -1.7770     0.0000     1.1860 ha         1 AJB       0.116000
     34 HN15         2.3050    -0.8670    -1.6550 hn         1 AJB       0.287800
     35 HN1A         2.3310     0.8660    -1.6410 hn         1 AJB       0.287800
     36 HN19         3.7200     0.2280     3.2500 hn         1 AJB       0.183500
     37 C2          -2.3100     1.6950     6.3890 c3         1 AJB      -0.003400
@<TRIPOS>BOND
     1     1     6 ar  
     2     1     9 ar  
     3     1    23 1   
     4     2    10 ar  
     5     2    11 ar  
     6     2    24 1   
     7     3     5 2   
     8     3    21 1   
     9     3    25 1   
    10     4    15 2   
    11     4    19 1   
    12     4    26 1   
    13     5     8 1   
    14     5    16 1   
    15     6    11 ar  
    16     6    14 1   
    17     7    17 2   
    18     7    19 1   
    19     7    22 1   
    20     8    27 1   
    21     8    28 1   
    22     8    29 1   
    23     9    10 ar  
    24     9    33 1   
    25    10    22 1   
    26    11    13 1   
    27    12    16 2   
    28    12    18 1   
    29    12    21 1   
    30    13    18 1   
    31    13    20 2   
    32    14    34 1   
    33    14    35 1   
    34    15    17 1   
    35    18    36 1   
    36    19    37 1   
    37    30    37 1   
    38    31    37 1   
    39    32    37 1   
@<TRIPOS>SUBSTRUCTURE
     1 AJB         1 TEMP              0 ****  ****    0 ROOT
