@<TRIPOS>MOLECULE
AJD
   31    32     1     0     0
SMALL
bcc


@<TRIPOS>ATOM
      1 OAA          0.0000     0.0000     0.0000 o          1 AJD      -0.881300
      2 OAB          1.9550     0.0510    -1.0520 o          1 AJD      -0.881300
      3 CAD          3.4730    -0.1810     3.6750 ca         1 AJD      -0.053000
      4 CAE          4.1670     0.0000     2.4960 ca         1 AJD      -0.252000
      5 CAF          1.3950    -0.2450     2.4770 ca         1 AJD       0.002000
      6 CAG          7.5510     1.4580    -1.1290 c3         1 AJD      -0.021400
      7 CAH          8.2460     0.0980    -1.0320 c3         1 AJD       0.145800
      8 CAI          6.0340     1.2500    -1.1380 c3         1 AJD      -0.033400
      9 CAJ          6.3730    -0.8380     0.1890 c3         1 AJD       0.112800
     10 NAK          7.8200    -0.5850     0.1960 n7         1 AJD      -0.581200
     11 CAM          1.3470     0.0000     0.0000 c          1 AJD       1.000200
     12 CAN          2.0910    -0.3030     3.6650 ca         1 AJD      -0.035900
     13 CAO          3.4830     0.0600     1.2880 ca         1 AJD       0.115600
     14 CAP          2.0850    -0.0630     1.2740 ca         1 AJD      -0.194600
     15 CAQ          5.6230     0.4940     0.1280 c3         1 AJD       0.136500
     16 HAD          4.0100    -0.2280     4.6140 ha         1 AJD       0.091000
     17 HAE          5.2460     0.0940     2.5130 ha         1 AJD       0.113000
     18 HAF          0.3130    -0.2850     2.4800 ha         1 AJD       0.138000
     19 HAH          7.9760    -0.5060    -1.8910 h1         1 AJD      -0.002800
     20 HAHA         9.3190     0.2430    -1.0090 h1         1 AJD      -0.002800
     21 HAI          5.7540     0.6720    -2.0100 hc         1 AJD       0.023200
     22 HAIA         5.5380     2.2130    -1.1600 hc         1 AJD       0.023200
     23 HAJ          6.0960    -1.3660     1.0930 h1         1 AJD       0.018200
     24 HAJA         6.1160    -1.4350    -0.6780 h1         1 AJD       0.018200
     25 HNAK         8.3100    -1.4530     0.2820 hn         1 AJD       0.240800
     26 HAQ          5.8740     1.0880     0.9980 h1         1 AJD       0.039700
     27 NAL          4.1790     0.2420     0.1000 nu         1 AJD      -0.467600
     28 HAG          7.8270     2.0660    -0.2760 hc         1 AJD       0.012200
     29 HNAL         3.6970     0.1910    -0.7750 hn         1 AJD       0.385800
     30 BrAC         1.1570    -0.5490     5.2910 br         1 AJD      -0.219100
     31 HAGA         7.8520     1.9520    -2.0450 hc         1 AJD       0.012200
@<TRIPOS>BOND
     1     1    11 1   
     2     2    11 1   
     3     3     4 ar  
     4     3    12 ar  
     5     3    16 1   
     6     4    13 ar  
     7     4    17 1   
     8     5    12 ar  
     9     5    14 ar  
    10     5    18 1   
    11     6     7 1   
    12     6     8 1   
    13     6    28 1   
    14     6    31 1   
    15     7    10 1   
    16     7    19 1   
    17     7    20 1   
    18     8    15 1   
    19     8    21 1   
    20     8    22 1   
    21     9    10 1   
    22     9    15 1   
    23     9    23 1   
    24     9    24 1   
    25    10    25 1   
    26    11    14 1   
    27    12    30 1   
    28    13    14 ar  
    29    13    27 1   
    30    15    26 1   
    31    15    27 1   
    32    27    29 1   
@<TRIPOS>SUBSTRUCTURE
     1 AJD         1 TEMP              0 ****  ****    0 ROOT
