@<TRIPOS>MOLECULE
AJG
   22    23     1     0     0
SMALL
bcc


@<TRIPOS>ATOM
      1 NAH          0.0000     0.0000     0.0000 na         1 AJG       0.223700
      2 CAN          1.3780     0.0000     0.0000 ca         1 AJG      -0.162200
      3 CAF          2.2520     0.0000     1.1010 ca         1 AJG      -0.089000
      4 CAE          3.6110    -0.0000     0.9200 ca         1 AJG      -0.049000
      5 CAL          4.1580    -0.0000    -0.3680 ca         1 AJG      -0.010000
      6 CAD          5.5780    -0.0000    -0.5510 cg         1 AJG       0.224800
      7 NAB          6.7040    -0.0200    -0.6980 n1         1 AJG      -0.364800
      8 CAG          3.3040    -0.0000    -1.4720 ca         1 AJG       0.019000
      9 CAO          1.9370    -0.0000    -1.2810 ca         1 AJG      -0.033100
     10 SAJ          0.5750    -0.0000    -2.4090 ss         1 AJG      -0.123100
     11 CAM         -0.6380     0.0000    -1.1890 cc         1 AJG       0.422700
     12 NAI         -1.9540     0.0000    -1.3820 nf         1 AJG      -0.672100
     13 CAK         -2.4450     0.0000    -2.6170 c          1 AJG       0.728500
     14 OAC         -1.6910     0.0000    -3.5710 o          1 AJG      -0.618100
     15 CAA         -3.9360     0.0000    -2.8350 c3         1 AJG      -0.058100
     16 HAH         -0.5370     0.4230     0.7310 hn         1 AJG       0.135700
     17 HAF          1.9380     0.2790     2.0990 ha         1 AJG       0.115000
     18 HAE          4.3790     0.0390     1.6820 ha         1 AJG       0.120000
     19 HAG          3.8710     0.1350    -2.3860 ha         1 AJG       0.127000
     20 HAA1        -4.3330    -0.7020    -2.1120 hc         1 AJG       0.021033
     21 HAA2        -4.4640     0.9100    -2.5770 hc         1 AJG       0.021033
     22 HAA3        -4.3220    -0.5900    -3.6570 hc         1 AJG       0.021033
@<TRIPOS>BOND
     1     1     2 1   
     2     1    11 1   
     3     1    16 1   
     4     2     3 ar  
     5     2     9 ar  
     6     3     4 ar  
     7     3    17 1   
     8     4     5 ar  
     9     4    18 1   
    10     5     6 1   
    11     5     8 ar  
    12     6     7 3   
    13     8     9 ar  
    14     8    19 1   
    15     9    10 1   
    16    10    11 1   
    17    11    12 2   
    18    12    13 1   
    19    13    14 2   
    20    13    15 1   
    21    15    20 1   
    22    15    21 1   
    23    15    22 1   
@<TRIPOS>SUBSTRUCTURE
     1 AJG         1 TEMP              0 ****  ****    0 ROOT
