@<TRIPOS>MOLECULE
molecule
   22    23     1     0     0
SMALL
bcc


@<TRIPOS>ATOM
      1 NAH          0.0000     0.0000     0.0000 na         1 AJG      -0.293300
      2 CAN          1.3780     0.0000     0.0000 ca         1 AJG       0.022800
      3 CAF          2.2520     0.0000     1.1010 ca         1 AJG      -0.136000
      4 CAE          3.6110    -0.0000     0.9200 ca         1 AJG      -0.048000
      5 CAL          4.1580    -0.0000    -0.3680 ca         1 AJG      -0.034000
      6 CAD          5.5780    -0.0000    -0.5510 cg         1 AJG       0.238800
      7 NAB          6.7070    -0.0050    -0.6770 n1         1 AJG      -0.348800
      8 CAG          3.3040    -0.0000    -1.4720 ca         1 AJG      -0.016000
      9 CAO          1.9370    -0.0000    -1.2810 ca         1 AJG      -0.102100
     10 SAJ          0.5750    -0.0000    -2.4090 ss         1 AJG       0.022900
     11 CAM         -0.6380     0.0000    -1.1890 cc         1 AJG       0.545700
     12 NAI         -1.9540     0.0000    -1.3820 nf         1 AJG      -0.795100
     13 CAK         -2.4450     0.0000    -2.6170 c          1 AJG       0.696500
     14 OAC         -1.6910     0.0000    -3.5710 o          1 AJG      -0.625100
     15 CAA         -3.9360     0.0000    -2.8350 c3         1 AJG      -0.158100
     16 HAH         -0.8000     0.0460     0.5990 hn         1 AJG       0.339700
     17 HAF          1.5690    -0.0840     1.9380 ha         1 AJG       0.149000
     18 HAE          4.2270    -0.4440     1.6920 ha         1 AJG       0.154000
     19 HAG          3.7360    -0.1040    -2.4610 ha         1 AJG       0.157000
     20 HAA1        -3.9190     0.9080    -2.2450 hc         1 AJG       0.077033
     21 HAA2        -4.1490    -0.7310    -2.0650 hc         1 AJG       0.077033
     22 HAA3        -4.4780    -0.0760    -3.7700 hc         1 AJG       0.077033
@<TRIPOS>BOND
     1     1     2 1
     2     1    11 1
     3     2     3 ar
     4     2     9 ar
     5     3     4 ar
     6     4     5 ar
     7     5     6 1
     8     5     8 ar
     9     6     7 3
    10     8     9 ar
    11     9    10 1
    12    10    11 1
    13    11    12 2
    14    12    13 1
    15    13    14 2
    16    13    15 1
    17     1    16 1
    18     3    17 1
    19     4    18 1
    20     8    19 1
    21    15    20 1
    22    15    21 1
    23    15    22 1
@<TRIPOS>SUBSTRUCTURE
     1 AJG         1 TEMP              0 ****  ****    0 ROOT
