@<TRIPOS>MOLECULE
AJH
   57    59     1     0     0
SMALL
bcc


@<TRIPOS>ATOM
      1 CAP          0.0000     0.0000     0.0000 ca         1 AJH      -0.113000
      2 CAX          1.3780     0.0000     0.0000 ca         1 AJH      -0.075500
      3 CAO          2.0760     0.0000     1.2090 ca         1 AJH      -0.067600
      4 CAJ          3.5560     0.0010     1.2090 c          1 AJH       0.963200
      5 OAW          4.2290     0.0010     2.3750 o          1 AJH      -0.867300
      6 OBD          4.1630     0.0020     0.1580 o          1 AJH      -0.867300
      7 CAY          1.3780    -0.0000     2.4180 ca         1 AJH      -0.075500
      8 CAQ          0.0010    -0.0000     2.4180 ca         1 AJH      -0.113000
      9 CAB         -0.6980    -0.0000     1.2090 ca         1 AJH      -0.203600
     10 CAA         -2.1780    -0.0010     1.2100 c          1 AJH       0.631700
     11 OAN         -2.7850    -0.8590     1.8190 o          1 AJH      -0.627100
     12 NAD         -2.8520     0.9510     0.5330 n          1 AJH      -0.164800
     13 CAR         -2.1470     1.9420    -0.3210 c3         1 AJH       0.010000
     14 CAS         -2.2280     1.5300    -1.7180 c3         1 AJH      -0.016000
     15 CBE         -4.2680     1.0450     0.6000 c3         1 AJH       0.043000
     16 CBC         -5.0330     0.1020    -0.3850 c3         1 AJH      -0.047400
     17 CBF         -4.2180     0.0670    -1.7190 c3         1 AJH       0.013000
     18 NAE         -3.6480     1.3050    -2.0910 n          1 AJH      -0.046800
     19 CAC         -4.3550     2.2380    -2.7610 c          1 AJH       0.556100
     20 OAU         -5.5130     2.0270    -3.0520 o          1 AJH      -0.706100
     21 CAF         -3.7070     3.5420    -3.1460 c3         1 AJH      -0.123400
     22 CAV         -4.7200     4.4150    -3.8900 c3         1 AJH      -0.040500
     23 NBG         -5.0810     3.7710    -5.1600 nz         1 AJH       0.016400
     24 CAT         -4.1030     5.7860    -4.1710 c3         1 AJH       0.026900
     25 CAG         -5.1400     6.6860    -4.7930 ca         1 AJH      -0.165300
     26 CAM         -5.8010     7.6180    -4.0160 ca         1 AJH      -0.059000
     27 CAL         -6.7530     8.4450    -4.5870 ca         1 AJH       0.105900
     28 FBB         -7.3980     9.3570    -3.8270 f          1 AJH      -0.092900
     29 CAK         -7.0430     8.3380    -5.9390 ca         1 AJH       0.137900
     30 FBA         -7.9720     9.1440    -6.4960 f          1 AJH      -0.091900
     31 CAH         -6.3810     7.4030    -6.7160 ca         1 AJH      -0.117000
     32 CAI         -5.4250     6.5820    -6.1440 ca         1 AJH       0.066900
     33 FAZ         -4.7740     5.6730    -6.9030 f          1 AJH      -0.131900
     34 HAP         -0.5420    -0.0000    -0.9380 ha         1 AJH       0.090000
     35 HAX          1.9190     0.0000    -0.9380 ha         1 AJH       0.132500
     36 HAY          1.9200    -0.0000     3.3560 ha         1 AJH       0.132500
     37 HAQ         -0.5410    -0.0000     3.3560 ha         1 AJH       0.090000
     38 HAR         -2.6140     2.9120    -0.2040 h1         1 AJH       0.050700
     39 HARA        -1.1080     1.9980    -0.0220 h1         1 AJH       0.050700
     40 HAS         -1.8100     2.3080    -2.3460 h1         1 AJH       0.051200
     41 HASA        -1.6710     0.6110    -1.8550 h1         1 AJH       0.051200
     42 HBE         -4.5780     0.8060     1.6100 h1         1 AJH       0.024200
     43 HBEA        -4.5520     2.0680     0.3820 h1         1 AJH       0.024200
     44 HBC         -6.0260     0.4920    -0.5720 hc         1 AJH       0.039200
     45 HBCA        -5.0950    -0.8950     0.0340 hc         1 AJH       0.039200
     46 HBF         -3.4200    -0.6580    -1.6120 h1         1 AJH       0.041700
     47 HBFA        -4.8790    -0.2580    -2.5140 h1         1 AJH       0.041700
     48 HAF         -3.3740     4.0570    -2.2530 hc         1 AJH       0.066700
     49 HAFA        -2.8570     3.3470    -3.7880 hc         1 AJH       0.066700
     50 HAV         -5.6080     4.5370    -3.2810 hx         1 AJH       0.107700
     51 HNBG        -5.2360     2.7950    -5.0070 hn         1 AJH       0.242133
     52 HNBA        -4.3380     3.8930    -5.8190 hn         1 AJH       0.242133
     53 HAT         -3.7560     6.2240    -3.2430 hc         1 AJH       0.059200
     54 HATA        -3.2670     5.6740    -4.8520 hc         1 AJH       0.059200
     55 HAM         -5.5590     7.7170    -2.9650 ha         1 AJH       0.143000
     56 HAH         -6.5850     7.3380    -7.7770 ha         1 AJH       0.152000
     57 HBG3        -5.9150     4.1920    -5.5210 hn         1 AJH       0.242133
@<TRIPOS>BOND
     1     1     2 ar  
     2     1     9 ar  
     3     1    34 1   
     4     2     3 ar  
     5     2    35 1   
     6     3     4 1   
     7     3     7 ar  
     8     4     5 1   
     9     4     6 1   
    10     7     8 ar  
    11     7    36 1   
    12     8     9 ar  
    13     8    37 1   
    14     9    10 1   
    15    10    11 2   
    16    10    12 1   
    17    12    13 1   
    18    12    15 1   
    19    13    14 1   
    20    13    38 1   
    21    13    39 1   
    22    14    18 1   
    23    14    40 1   
    24    14    41 1   
    25    15    16 1   
    26    15    42 1   
    27    15    43 1   
    28    16    17 1   
    29    16    44 1   
    30    16    45 1   
    31    17    18 1   
    32    17    46 1   
    33    17    47 1   
    34    18    19 1   
    35    19    20 2   
    36    19    21 1   
    37    21    22 1   
    38    21    48 1   
    39    21    49 1   
    40    22    23 1   
    41    22    24 1   
    42    22    50 1   
    43    23    51 1   
    44    23    52 1   
    45    23    57 1   
    46    24    25 1   
    47    24    53 1   
    48    24    54 1   
    49    25    26 ar  
    50    25    32 ar  
    51    26    27 ar  
    52    26    55 1   
    53    27    28 1   
    54    27    29 ar  
    55    29    30 1   
    56    29    31 ar  
    57    31    32 ar  
    58    31    56 1   
    59    32    33 1   
@<TRIPOS>SUBSTRUCTURE
     1 AJH         1 TEMP              0 ****  ****    0 ROOT
