@<TRIPOS>MOLECULE
AJI
   45    48     1     0     0
SMALL
bcc


@<TRIPOS>ATOM
      1 C1           0.0000     0.0000     0.0000 c3         1 AJI      -0.016400
      2 C2           3.9510     0.0110    -8.9800 c3         1 AJI      -0.003400
      3 C3          12.3420     1.5790    -1.4980 ca         1 AJI      -0.154000
      4 C4          12.5990    -0.8040    -1.3690 ca         1 AJI      -0.154000
      5 C5          10.9780     1.4430    -1.3320 ca         1 AJI      -0.015500
      6 C6          11.2350    -0.9450    -1.2020 ca         1 AJI      -0.015500
      7 C7           8.9770     0.0030    -3.7040 ca         1 AJI      -0.104000
      8 C8           8.4780     0.0050    -4.9790 ca         1 AJI      -0.144300
      9 C9           2.2280     0.0000     1.1230 cc         1 AJI      -0.174400
     10 C10          2.5530     0.0090    -6.8640 cc         1 AJI       0.207400
     11 C11          1.5080     0.0000     0.0000 cd         1 AJI       0.349600
     12 C12         13.1530     0.4560    -1.5170 ca         1 AJI       0.135900
     13 C13         10.4190     0.1790    -1.1830 ca         1 AJI      -0.045100
     14 C14          8.0790     0.0020    -2.6320 ca         1 AJI       0.008600
     15 C15          7.0950     0.0060    -5.1770 ca         1 AJI       0.499600
     16 C16          6.7050     0.0030    -2.8980 ca         1 AJI       0.332800
     17 C17          3.5100     0.0010    -0.9790 cc         1 AJI       0.406300
     18 C18          4.7090     0.0070    -6.5620 cc         1 AJI       0.313800
     19 C19          5.7420     0.0020    -1.7790 c          1 AJI       0.448600
     20 N20          2.8190     0.0070    -5.5890 nd         1 AJI      -0.317000
     21 N21          2.2210     0.0010    -1.1100 nd         1 AJI      -0.606000
     22 N22          6.2620     0.0040    -4.1540 nb         1 AJI      -0.497000
     23 N23          4.0910     0.0060    -5.4040 nd         1 AJI      -0.315000
     24 N24          4.4180     0.0020    -2.0320 ns         1 AJI      -0.036400
     25 N25          3.7470     0.0090    -7.5290 na         1 AJI       0.156300
     26 O26          6.1420    -0.0000    -0.6320 o          1 AJI      -0.590100
     27 S28          3.9330    -0.0000     0.6780 ss         1 AJI      -0.236300
     28 S30          6.4530     0.0080    -6.8180 ss         1 AJI      -0.421600
     29 H1          -0.3610    -0.9460     0.3860 hc         1 AJI       0.010700
     30 H1A         -0.3610     0.8070     0.6260 hc         1 AJI       0.010700
     31 H1B         -0.3610     0.1390    -1.0120 hc         1 AJI       0.010700
     32 H2           4.6290    -0.7890    -9.2510 h1         1 AJI       0.031033
     33 H2A          3.0010    -0.1370    -9.4790 h1         1 AJI       0.031033
     34 H2B          4.3740     0.9610    -9.2840 h1         1 AJI       0.031033
     35 H3          12.7780     2.5640    -1.6140 ha         1 AJI       0.124500
     36 H4          13.2350    -1.6810    -1.3840 ha         1 AJI       0.124500
     37 H5          10.3440     2.3210    -1.3170 ha         1 AJI       0.123000
     38 H6          10.8010    -1.9310    -1.0860 ha         1 AJI       0.123000
     39 H7          10.0470     0.0020    -3.5300 ha         1 AJI       0.134000
     40 H8           9.1500     0.0060    -5.8280 ha         1 AJI       0.123000
     41 H9           1.8340    -0.0000     2.1320 h4         1 AJI       0.158000
     42 H10          1.5680     0.0100    -7.3140 h5         1 AJI       0.035100
     43 HN24         4.0890     0.0420    -2.9760 hn         1 AJI       0.224500
     44 S29          8.6700    -0.0010    -0.9720 ss         1 AJI      -0.183800
     45 F27         14.4870     0.5920    -1.6790 f          1 AJI      -0.124900
@<TRIPOS>BOND
     1     1    11 1   
     2     1    29 1   
     3     1    30 1   
     4     1    31 1   
     5     2    25 1   
     6     2    32 1   
     7     2    33 1   
     8     2    34 1   
     9     3     5 ar  
    10     3    12 ar  
    11     3    35 1   
    12     4     6 ar  
    13     4    12 ar  
    14     4    36 1   
    15     5    13 ar  
    16     5    37 1   
    17     6    13 ar  
    18     6    38 1   
    19     7     8 ar  
    20     7    14 ar  
    21     7    39 1   
    22     8    15 ar  
    23     8    40 1   
    24     9    11 2   
    25     9    27 1   
    26     9    41 1   
    27    10    20 2   
    28    10    25 1   
    29    10    42 1   
    30    11    21 1   
    31    12    45 1   
    32    13    44 1   
    33    14    16 ar  
    34    14    44 1   
    35    15    22 ar  
    36    15    28 1   
    37    16    19 1   
    38    16    22 ar  
    39    17    21 2   
    40    17    24 1   
    41    17    27 1   
    42    18    23 2   
    43    18    25 1   
    44    18    28 1   
    45    19    24 1   
    46    19    26 2   
    47    20    23 1   
    48    24    43 1   
@<TRIPOS>SUBSTRUCTURE
     1 AJI         1 TEMP              0 ****  ****    0 ROOT
