@<TRIPOS>MOLECULE
molecule
   45    48     1     0     0
SMALL
bcc


@<TRIPOS>ATOM
      1 C1           0.0000     0.0000     0.0000 c3         1 AJI      -0.116400
      2 C2           3.9510     0.0110    -8.9800 c3         1 AJI       0.030600
      3 C3          12.3420     1.5790    -1.4980 ca         1 AJI      -0.185000
      4 C4          12.5990    -0.8040    -1.3690 ca         1 AJI      -0.185000
      5 C5          10.9780     1.4430    -1.3320 ca         1 AJI      -0.052000
      6 C6          11.2350    -0.9450    -1.2020 ca         1 AJI      -0.052000
      7 C7           8.9770     0.0030    -3.7040 ca         1 AJI      -0.112000
      8 C8           8.4780     0.0050    -4.9790 ca         1 AJI      -0.189300
      9 C9           2.2280     0.0000     1.1230 cc         1 AJI      -0.255400
     10 C10          2.5530     0.0090    -6.8640 cc         1 AJI       0.363400
     11 C11          1.5080     0.0000     0.0000 cd         1 AJI       0.398600
     12 C12         13.1530     0.4560    -1.5170 ca         1 AJI       0.160900
     13 C13         10.4190     0.1790    -1.1830 ca         1 AJI      -0.090100
     14 C14          8.0790     0.0020    -2.6320 ca         1 AJI      -0.059400
     15 C15          7.0950     0.0060    -5.1770 ca         1 AJI       0.494600
     16 C16          6.7050     0.0030    -2.8980 ca         1 AJI       0.376800
     17 C17          3.5100     0.0010    -0.9790 cc         1 AJI       0.550300
     18 C18          4.7090     0.0070    -6.5620 cc         1 AJI       0.448800
     19 C19          5.7420     0.0020    -1.7790 c          1 AJI       0.574600
     20 N20          2.8190     0.0070    -5.5890 nd         1 AJI      -0.350000
     21 N21          2.2210     0.0010    -1.1100 nd         1 AJI      -0.727000
     22 N22          6.2620     0.0040    -4.1540 nb         1 AJI      -0.616000
     23 N23          4.0910     0.0060    -5.4040 nd         1 AJI      -0.329000
     24 N24          4.4180     0.0020    -2.0320 ns         1 AJI      -0.489400
     25 N25          3.7470     0.0090    -7.5290 na         1 AJI      -0.319700
     26 O26          6.1420    -0.0000    -0.6320 o          1 AJI      -0.584100
     27 S28          3.9330    -0.0000     0.6780 ss         1 AJI      -0.109300
     28 S30          6.4530     0.0080    -6.8180 ss         1 AJI      -0.271600
     29 H1          -0.3610    -0.9460     0.3860 hc         1 AJI       0.048367
     30 H1A         -0.3610     0.8070     0.6260 hc         1 AJI       0.048367
     31 H1B         -0.3610     0.1390    -1.0120 hc         1 AJI       0.048367
     32 H2           4.6290    -0.7890    -9.2510 h1         1 AJI       0.060700
     33 H2A          3.0010    -0.1370    -9.4790 h1         1 AJI       0.060700
     34 H2B          4.3740     0.9610    -9.2840 h1         1 AJI       0.060700
     35 H3          12.7780     2.5640    -1.6140 ha         1 AJI       0.151000
     36 H4          13.2350    -1.6810    -1.3840 ha         1 AJI       0.151000
     37 H5          10.3440     2.3210    -1.3170 ha         1 AJI       0.152000
     38 H6          10.8010    -1.9310    -1.0860 ha         1 AJI       0.152000
     39 H7          10.0470     0.0020    -3.5300 ha         1 AJI       0.158000
     40 H8           9.1500     0.0060    -5.8280 ha         1 AJI       0.147000
     41 H9           1.8340    -0.0000     2.1320 h4         1 AJI       0.175000
     42 H10          1.5680     0.0100    -7.3140 h5         1 AJI       0.075100
     43 HN24         4.0890     0.0420    -2.9760 hn         1 AJI       0.388500
     44 S29          8.6700    -0.0010    -0.9720 ss         1 AJI      -0.046800
     45 F27         14.4870     0.5920    -1.6790 f          1 AJI      -0.135900
@<TRIPOS>BOND
     1     1    11 1
     2     2    25 1
     3     3     5 ar
     4     3    12 ar
     5     4     6 ar
     6     4    12 ar
     7     5    13 ar
     8     6    13 ar
     9     7     8 ar
    10     7    14 ar
    11     8    15 ar
    12     9    11 2
    13     9    27 1
    14    10    20 2
    15    10    25 1
    16    11    21 1
    17    12    45 1
    18    13    44 1
    19    14    16 ar
    20    14    44 1
    21    15    22 ar
    22    15    28 1
    23    16    19 1
    24    16    22 ar
    25    17    21 2
    26    17    24 1
    27    17    27 1
    28    18    23 2
    29    18    25 1
    30    18    28 1
    31    19    24 1
    32    19    26 2
    33    20    23 1
    34     1    29 1
    35     1    30 1
    36     1    31 1
    37     2    32 1
    38     2    33 1
    39     2    34 1
    40     3    35 1
    41     4    36 1
    42     5    37 1
    43     6    38 1
    44     7    39 1
    45     8    40 1
    46     9    41 1
    47    10    42 1
    48    24    43 1
@<TRIPOS>SUBSTRUCTURE
     1 AJI         1 TEMP              0 ****  ****    0 ROOT
