@<TRIPOS>MOLECULE
AJK
   42    44     1     0     0
SMALL
bcc


@<TRIPOS>ATOM
      1 C8           0.0000     0.0000     0.0000 cc         1 AJK      -0.154000
      2 C3           0.5100    -2.7880     6.1080 c3         1 AJK       0.053100
      3 C4           0.5960    -1.4180     4.1400 c3         1 AJK      -0.046200
      4 C1          -0.6440    -2.6730     8.3240 ca         1 AJK      -0.069000
      5 N1           1.7750     0.0000     1.2950 na         1 AJK       0.413900
      6 C2           0.5370    -2.7810     7.6150 ca         1 AJK      -0.211300
      7 C5           0.7120     0.0160     3.6210 c3         1 AJK       0.090900
      8 C6           0.6850     0.0090     2.1140 cd         1 AJK      -0.393600
      9 C7           1.3480     0.0000     0.0000 cd         1 AJK      -0.297300
     10 C9          -0.4220     0.0060     1.3440 cc         1 AJK      -0.133000
     11 C10          1.7440    -2.8830     8.2810 ca         1 AJK      -0.071000
     12 C13          0.6170    -2.7690    11.8670 cp         1 AJK      -0.093000
     13 C14         -0.0540    -1.7760    12.5780 ca         1 AJK      -0.078500
     14 C12          0.5900    -2.7690    10.3830 cp         1 AJK       0.051000
     15 C11          1.7760    -2.8780     9.6620 ca         1 AJK      -0.074000
     16 C15         -0.0200    -1.7770    13.9580 ca         1 AJK      -0.092000
     17 C16          0.6780    -2.7610    14.6340 ca         1 AJK      -0.069000
     18 C18          1.3180    -3.7580    12.5530 ca         1 AJK      -0.078500
     19 C17          1.3460    -3.7490    13.9330 ca         1 AJK      -0.092000
     20 C           -0.6240    -2.6600     9.7050 ca         1 AJK      -0.044600
     21 N            0.6230    -1.4110     5.6090 ny         1 AJK       0.024000
     22 H1          -0.6410    -0.0020    -0.8730 ha         1 AJK       0.141000
     23 H2           1.3390    -3.3760     5.7350 hx         1 AJK       0.079200
     24 H3          -0.4230    -3.2210     5.7660 hx         1 AJK       0.079200
     25 H4          -0.3360    -1.8520     3.7980 hx         1 AJK       0.082700
     26 H5           1.4260    -2.0050     3.7670 hx         1 AJK       0.082700
     27 H6          -1.5860    -2.5890     7.7960 ha         1 AJK       0.117000
     28 H7           2.7290    -0.0000     1.5940 hn         1 AJK       0.108700
     29 H8           1.6440     0.4500     3.9630 hc         1 AJK       0.028200
     30 H9          -0.1180     0.6040     3.9940 hc         1 AJK       0.028200
     31 H10          1.9830    -0.0050    -0.8780 h4         1 AJK       0.158000
     32 H11         -1.4470     0.0090     1.6950 ha         1 AJK       0.127000
     33 H12          2.6670    -2.9690     7.7190 ha         1 AJK       0.108000
     34 H13         -0.6010    -1.0040    12.0490 ha         1 AJK       0.108000
     35 H14          2.7220    -2.9590    10.1830 ha         1 AJK       0.133000
     36 H15         -0.5410    -1.0050    14.5120 ha         1 AJK       0.113500
     37 H16          0.7020    -2.7580    15.7170 ha         1 AJK       0.113000
     38 H17          1.8410    -4.5320    12.0050 ha         1 AJK       0.108000
     39 H18          1.8900    -4.5170    14.4680 ha         1 AJK       0.113500
     40 H19         -0.1440    -0.8670     5.9540 hn         1 AJK       0.242800
     41 H20          1.4840    -1.0110     5.9250 hn         1 AJK       0.242800
     42 Cl          -2.1080    -2.5230    10.5950 cl         1 AJK       0.048600
@<TRIPOS>BOND
     1     1     9 2   
     2     1    10 1   
     3     1    22 1   
     4     2     6 1   
     5     2    21 1   
     6     2    23 1   
     7     2    24 1   
     8     3     7 1   
     9     3    21 1   
    10     3    25 1   
    11     3    26 1   
    12     4     6 ar  
    13     4    20 ar  
    14     4    27 1   
    15     5     8 1   
    16     5     9 1   
    17     5    28 1   
    18     6    11 ar  
    19     7     8 1   
    20     7    29 1   
    21     7    30 1   
    22     8    10 2   
    23     9    31 1   
    24    10    32 1   
    25    11    15 ar  
    26    11    33 1   
    27    12    13 ar  
    28    12    14 1   
    29    12    18 ar  
    30    13    16 ar  
    31    13    34 1   
    32    14    15 ar  
    33    14    20 ar  
    34    15    35 1   
    35    16    17 ar  
    36    16    36 1   
    37    17    19 ar  
    38    17    37 1   
    39    18    19 ar  
    40    18    38 1   
    41    19    39 1   
    42    20    42 1   
    43    21    40 1   
    44    21    41 1   
@<TRIPOS>SUBSTRUCTURE
     1 AJK         1 TEMP              0 ****  ****    0 ROOT
