@<TRIPOS>MOLECULE
molecule
   42    44     1     0     0
SMALL
bcc


@<TRIPOS>ATOM
      1 C8           0.0000     0.0000     0.0000 cc         1 AJK      -0.196000
      2 C3           0.5100    -2.7880     6.1080 c3         1 AJK       0.163100
      3 C4           0.5960    -1.4180     4.1400 c3         1 AJK       0.089800
      4 C1          -0.6440    -2.6730     8.3240 ca         1 AJK      -0.097000
      5 N1           1.7750     0.0000     1.2950 na         1 AJK      -0.157100
      6 C2           0.5370    -2.7810     7.6150 ca         1 AJK      -0.194300
      7 C5           0.7120     0.0160     3.6210 c3         1 AJK      -0.018100
      8 C6           0.6850     0.0090     2.1140 cc         1 AJK      -0.179600
      9 C7           1.3480     0.0000     0.0000 cd         1 AJK      -0.119300
     10 C9          -0.4220     0.0060     1.3440 cd         1 AJK      -0.161000
     11 C10          1.7440    -2.8830     8.2810 ca         1 AJK      -0.103000
     12 C13          0.6170    -2.7690    11.8670 cp         1 AJK      -0.090000
     13 C14         -0.0540    -1.7760    12.5780 ca         1 AJK      -0.098000
     14 C12          0.5900    -2.7690    10.3830 cp         1 AJK       0.039000
     15 C11          1.7760    -2.8780     9.6620 ca         1 AJK      -0.104000
     16 C15         -0.0200    -1.7770    13.9580 ca         1 AJK      -0.124000
     17 C16          0.6780    -2.7610    14.6340 ca         1 AJK      -0.097000
     18 C18          1.3180    -3.7580    12.5530 ca         1 AJK      -0.098000
     19 C17          1.3460    -3.7490    13.9330 ca         1 AJK      -0.124000
     20 C           -0.6240    -2.6600     9.7050 ca         1 AJK       0.031400
     21 N            0.6230    -1.4110     5.6090 ny         1 AJK      -0.736000
     22 H1          -0.6410    -0.0020    -0.8730 ha         1 AJK       0.169000
     23 H2           1.3390    -3.3760     5.7350 hx         1 AJK       0.108200
     24 H3          -0.4230    -3.2210     5.7660 hx         1 AJK       0.108200
     25 H4          -0.3360    -1.8520     3.7980 hx         1 AJK       0.109200
     26 H5           1.4260    -2.0050     3.7670 hx         1 AJK       0.109200
     27 H6          -1.5860    -2.5890     7.7960 ha         1 AJK       0.146000
     28 H7           2.7290    -0.0000     1.5940 hn         1 AJK       0.296700
     29 H8           1.6440     0.4500     3.9630 hc         1 AJK       0.067200
     30 H9          -0.1180     0.6040     3.9940 hc         1 AJK       0.067200
     31 H10          1.9830    -0.0050    -0.8780 h4         1 AJK       0.185000
     32 H11         -1.4470     0.0090     1.6950 ha         1 AJK       0.151000
     33 H12          2.6670    -2.9690     7.7190 ha         1 AJK       0.137000
     34 H13         -0.6010    -1.0040    12.0490 ha         1 AJK       0.135500
     35 H14          2.7220    -2.9590    10.1830 ha         1 AJK       0.166000
     36 H15         -0.5410    -1.0050    14.5120 ha         1 AJK       0.144500
     37 H16          0.7020    -2.7580    15.7170 ha         1 AJK       0.144000
     38 H17          1.8410    -4.5320    12.0050 ha         1 AJK       0.135500
     39 H18          1.8900    -4.5170    14.4680 ha         1 AJK       0.144500
     40 H19         -0.1440    -0.8670     5.9540 hn         1 AJK       0.449300
     41 H20          1.4840    -1.0110     5.9250 hn         1 AJK       0.449300
     42 Cl          -2.1080    -2.5230    10.5950 cl         1 AJK      -0.050400
@<TRIPOS>BOND
     1    16    13 ar
     2    16    17 ar
     3    13    12 ar
     4    17    19 ar
     5    12    18 ar
     6    12    14 1
     7    15    14 ar
     8    15    11 ar
     9    19    18 ar
    10    14    20 ar
    11    11     6 ar
    12    20    42 1
    13    20     4 ar
    14     6     4 ar
    15     6     2 1
    16     2    21 1
    17    21     3 1
    18     7     3 1
    19     7     8 1
    20     8    10 2
    21     8     5 1
    22    10     1 1
    23     5     9 1
    24     1     9 2
    25     1    22 1
    26     2    23 1
    27     2    24 1
    28     3    25 1
    29     3    26 1
    30     4    27 1
    31     5    28 1
    32     7    29 1
    33     7    30 1
    34     9    31 1
    35    10    32 1
    36    11    33 1
    37    13    34 1
    38    15    35 1
    39    16    36 1
    40    17    37 1
    41    18    38 1
    42    19    39 1
    43    21    40 1
    44    21    41 1
@<TRIPOS>SUBSTRUCTURE
     1 AJK         1 TEMP              0 ****  ****    0 ROOT
