@<TRIPOS>MOLECULE
AJM
   44    49     1     0     0
SMALL
bcc


@<TRIPOS>ATOM
      1 O1           0.0000     0.0000     0.0000 oh         1 AJM      -0.577800
      2 C15          1.4290     0.0000     0.0000 c3         1 AJM       0.204100
      3 C5           1.9610     0.0000     1.4200 c3         1 AJM      -0.016700
      4 C4           1.9050    -1.4640     1.8500 c3         1 AJM      -0.014400
      5 C6           1.4270     0.8910     2.4670 ca         1 AJM      -0.103300
      6 C7           0.1700     1.3930     2.7240 ca         1 AJM      -0.048000
      7 C8           0.0220     2.2160     3.8330 ca         1 AJM      -0.127000
      8 C9           1.0890     2.5270     4.6510 ca         1 AJM      -0.086000
      9 C11          2.5390     1.2580     3.2650 ca         1 AJM      -0.011400
     10 C10          2.3630     2.0360     4.4050 ca         1 AJM      -0.110000
     11 C14          1.9380    -1.3230    -0.5810 c3         1 AJM      -0.105700
     12 C13          3.0800    -1.0770    -1.5650 c3         1 AJM      -0.035700
     13 C16          3.8870    -2.3840    -1.7270 c3         1 AJM      -0.073400
     14 C3           2.5160    -2.1460     0.5960 c3         1 AJM       0.134500
     15 N2           3.9660    -1.8970     0.6780 n3         1 AJM      -0.509600
     16 C17          4.5780    -2.6750    -0.3910 c3         1 AJM       0.360300
     17 O2           4.4540    -4.0670    -0.0930 oh         1 AJM      -0.578800
     18 C2           4.2660    -0.4840     0.5280 c3         1 AJM       0.160500
     19 C12          4.0740    -0.0760    -0.9480 c3         1 AJM      -0.076400
     20 C1           3.4430     0.4500     1.3560 c3         1 AJM       0.106500
     21 N1           3.7200     0.6670     2.7740 nh         1 AJM      -0.321000
     22 C18          4.7670     1.6960     2.8460 c3         1 AJM       0.151100
     23 HO1         -0.3140     0.4360    -0.7750 ho         1 AJM       0.385000
     24 H15          1.8180     0.8430    -0.5590 h1         1 AJM       0.016700
     25 H41          2.5150    -1.6390     2.7280 hc         1 AJM       0.044200
     26 H42          0.8840    -1.7860     2.0140 hc         1 AJM       0.044200
     27 H7          -0.6730     1.1540     2.0870 ha         1 AJM       0.122000
     28 H8          -0.9560     2.6220     4.0630 ha         1 AJM       0.101000
     29 H9           0.9280     3.1730     5.5060 ha         1 AJM       0.098000
     30 H10          3.1960     2.2850     5.0510 ha         1 AJM       0.113000
     31 H14          1.1310    -1.8630    -1.0620 hc         1 AJM       0.052700
     32 H13          2.7090    -0.7240    -2.5190 hc         1 AJM       0.032700
     33 H161         3.2200    -3.1990    -1.9800 hc         1 AJM       0.031200
     34 H162         4.6300    -2.2620    -2.5050 hc         1 AJM       0.031200
     35 H3           2.2710    -3.1990     0.5330 h1         1 AJM       0.067700
     36 H17          5.6280    -2.4170    -0.4660 h2         1 AJM       0.003700
     37 HO2          5.3120    -4.4490    -0.0110 ho         1 AJM       0.392000
     38 H2           5.3070    -0.3330     0.7880 h1         1 AJM       0.034700
     39 H121         5.0220    -0.1250    -1.4710 hc         1 AJM       0.027700
     40 H122         3.6720     0.9280    -1.0060 hc         1 AJM       0.027700
     41 H1           3.4720     1.4180     0.8690 h1         1 AJM       0.027700
     42 H181         5.0540     1.8470     3.8800 h1         1 AJM       0.008367
     43 H182         5.6300     1.3730     2.2760 h1         1 AJM       0.008367
     44 H183         4.3900     2.6250     2.4360 h1         1 AJM       0.008367
@<TRIPOS>BOND
     1     1     2 1   
     2     1    23 1   
     3     2     3 1   
     4     2    11 1   
     5     2    24 1   
     6     3     4 1   
     7     3     5 1   
     8     3    20 1   
     9     4    14 1   
    10     4    25 1   
    11     4    26 1   
    12     5     6 ar  
    13     5     9 ar  
    14     6     7 ar  
    15     6    27 1   
    16     7     8 ar  
    17     7    28 1   
    18     8    10 ar  
    19     8    29 1   
    20     9    10 ar  
    21     9    21 1   
    22    10    30 1   
    23    11    12 1   
    24    11    14 1   
    25    11    31 1   
    26    12    13 1   
    27    12    19 1   
    28    12    32 1   
    29    13    16 1   
    30    13    33 1   
    31    13    34 1   
    32    14    15 1   
    33    14    35 1   
    34    15    16 1   
    35    15    18 1   
    36    16    17 1   
    37    16    36 1   
    38    17    37 1   
    39    18    19 1   
    40    18    20 1   
    41    18    38 1   
    42    19    39 1   
    43    19    40 1   
    44    20    21 1   
    45    20    41 1   
    46    21    22 1   
    47    22    42 1   
    48    22    43 1   
    49    22    44 1   
@<TRIPOS>SUBSTRUCTURE
     1 AJM         1 TEMP              0 ****  ****    0 ROOT
