@<TRIPOS>MOLECULE
AJN
   50    54     1     0     0
SMALL
bcc


@<TRIPOS>ATOM
      1 O1           0.0000     0.0000     0.0000 o          1 AJN      -0.612000
      2 C13          1.2170     0.0000     0.0000 c          1 AJN       0.744300
      3 O2           1.8920     0.0000     1.1680 os         1 AJN      -0.413900
      4 C14          1.1140    -0.0000     2.3670 c3         1 AJN       0.256700
      5 C11          1.9230    -0.0060    -1.2270 ce         1 AJN      -0.362400
      6 C12          1.2510     0.1160    -2.3800 c2         1 AJN       0.207100
      7 O            1.8340     0.1080    -3.5900 os         1 AJN      -0.296900
      8 C1           3.2840     0.2130    -3.6670 c3         1 AJN       0.189100
      9 C            3.7130     1.6620    -3.4310 c3         1 AJN      -0.046100
     10 C10          3.4160    -0.1410    -1.2210 c3         1 AJN       0.032500
     11 C2           3.8720    -0.6850    -2.5800 c3         1 AJN      -0.098700
     12 C9           3.9200    -1.0720    -0.1210 c3         1 AJN      -0.052400
     13 C8           5.4490    -1.1230    -0.2090 c3         1 AJN       0.234700
     14 N            5.8660    -1.5970    -1.5340 n3         1 AJN      -0.531600
     15 C3           5.3980    -0.7080    -2.6130 c3         1 AJN       0.166800
     16 C7           5.9930    -2.0690     0.8320 cc         1 AJN      -0.270300
     17 N1           5.5850    -2.2020     2.1310 na         1 AJN       0.387600
     18 C15          6.3230    -3.1690     2.7510 ca         1 AJN      -0.232200
     19 C20          7.2460    -3.6730     1.7970 ca         1 AJN      -0.092800
     20 C6           6.9970    -2.9390     0.5760 cd         1 AJN      -0.137400
     21 C5           7.6770    -3.0580    -0.7650 c3         1 AJN       0.077800
     22 C4           7.3130    -1.8230    -1.6000 c3         1 AJN       0.155800
     23 C19          8.1540    -4.6840     2.1300 ca         1 AJN      -0.041000
     24 C18          8.1060    -5.1620     3.4150 ca         1 AJN      -0.137000
     25 C17          7.2060    -4.6760     4.3500 ca         1 AJN      -0.085000
     26 C16          6.2980    -3.6760     4.0480 ca         1 AJN      -0.108000
     27 H1           0.4030     0.8160     2.3370 h1         1 AJN       0.000700
     28 H2           1.7680     0.1230     3.2220 h1         1 AJN       0.000700
     29 H3           0.5820    -0.9400     2.4520 h1         1 AJN       0.000700
     30 H4           0.1740     0.2260    -2.3340 h4         1 AJN       0.151000
     31 H5           3.6220    -0.1220    -4.6400 h1         1 AJN       0.046700
     32 H6           4.7940     1.7240    -3.4350 hc         1 AJN       0.021033
     33 H7           3.3120     2.2900    -4.2180 hc         1 AJN       0.021033
     34 H8           3.3350     1.9990    -2.4730 hc         1 AJN       0.021033
     35 H9           3.8530     0.8390    -1.0730 hc         1 AJN       0.037700
     36 H10          3.4970    -1.6930    -2.7070 hc         1 AJN       0.062700
     37 H11          3.6220    -0.6880     0.8470 hc         1 AJN       0.045700
     38 H12          3.5120    -2.0650    -0.2680 hc         1 AJN       0.045700
     39 H13          5.8520    -0.1320    -0.0380 h1         1 AJN       0.010700
     40 H15          5.7820     0.2920    -2.4540 h1         1 AJN       0.013700
     41 H16          5.7360    -1.0870    -3.5700 h1         1 AJN       0.013700
     42 H17          4.8570    -1.6690     2.5630 hn         1 AJN       0.112700
     43 H18          7.3330    -3.9530    -1.2690 hc         1 AJN       0.020200
     44 H19          8.7510    -3.1000    -0.6260 hc         1 AJN       0.020200
     45 H20          7.6050    -1.9870    -2.6310 h1         1 AJN       0.008200
     46 H21          7.8310    -0.9570    -1.2070 h1         1 AJN       0.008200
     47 H22          8.8620    -5.0700     1.4060 ha         1 AJN       0.105000
     48 H23          8.7940    -5.9460     3.7080 ha         1 AJN       0.098000
     49 H24          7.2140    -5.0920     5.3500 ha         1 AJN       0.096000
     50 H25          5.5990    -3.3040     4.7880 ha         1 AJN       0.104000
@<TRIPOS>BOND
     1     1     2 2   
     2     2     3 1   
     3     2     5 1   
     4     3     4 1   
     5     4    27 1   
     6     4    28 1   
     7     4    29 1   
     8     5     6 2   
     9     5    10 1   
    10     6     7 1   
    11     6    30 1   
    12     7     8 1   
    13     8     9 1   
    14     8    11 1   
    15     8    31 1   
    16     9    32 1   
    17     9    33 1   
    18     9    34 1   
    19    10    11 1   
    20    10    12 1   
    21    10    35 1   
    22    11    15 1   
    23    11    36 1   
    24    12    13 1   
    25    12    37 1   
    26    12    38 1   
    27    13    14 1   
    28    13    16 1   
    29    13    39 1   
    30    14    15 1   
    31    14    22 1   
    32    15    40 1   
    33    15    41 1   
    34    16    17 1   
    35    16    20 2   
    36    17    18 1   
    37    17    42 1   
    38    18    19 ar  
    39    18    26 ar  
    40    19    20 1   
    41    19    23 ar  
    42    20    21 1   
    43    21    22 1   
    44    21    43 1   
    45    21    44 1   
    46    22    45 1   
    47    22    46 1   
    48    23    24 ar  
    49    23    47 1   
    50    24    25 ar  
    51    24    48 1   
    52    25    26 ar  
    53    25    49 1   
    54    26    50 1   
@<TRIPOS>SUBSTRUCTURE
     1 AJN         1 TEMP              0 ****  ****    0 ROOT
