@<TRIPOS>MOLECULE
molecule
   18    19     1     0     0
SMALL
bcc


@<TRIPOS>ATOM
      1 C4           0.0000     0.0000     0.0000 ca         1 AJV      -0.297000
      2 C5           1.4000     0.0000     0.0000 ca         1 AJV      -0.004000
      3 C6          -2.2950    -0.0030    -0.3230 c          1 AJV       0.690700
      4 C7          -0.9700    -0.0010    -1.0340 cc         1 AJV       0.198800
      5 N           -2.0540    -0.0070     0.9740 nc         1 AJV      -0.458400
      6 C            2.0850     0.0000     1.2000 ca         1 AJV      -0.206000
      7 O           -3.3940    -0.0000    -0.8500 o          1 AJV      -0.529100
      8 C1           1.3930     0.0000     2.4000 ca         1 AJV      -0.062000
      9 C2           0.0050    -0.0010     2.4210 ca         1 AJV       0.071900
     10 C3          -0.7130    -0.0070     1.2260 ca         1 AJV       0.155000
     11 F           -0.6520    -0.0010     3.6010 f          1 AJV      -0.123900
     12 O1           0.5720     0.0010    -2.8510 oh         1 AJV      -0.331300
     13 H1           1.9440    -0.0000    -0.9370 ha         1 AJV       0.138000
     14 H3           3.1690     0.0010     1.2020 ha         1 AJV       0.141000
     15 H4           1.9420     0.0000     3.3340 ha         1 AJV       0.149000
     16 H5           0.5530     0.0170    -3.7930 ho         1 AJV       0.426000
     17 H6          -1.5270    -0.0240    -2.9860 hn         1 AJV       0.490800
     18 N1          -0.7530    -0.0010    -2.3510 nu         1 AJV      -0.449500
@<TRIPOS>BOND
     1     7     3 2
     2    12    18 1
     3     3     5 1
     4     3     4 1
     5     5    10 2
     6    18     4 1
     7     4     1 2
     8    10     1 ar
     9    10     9 ar
    10     1     2 ar
    11    11     9 1
    12     9     8 ar
    13     2     6 ar
    14     8     6 ar
    15     2    13 1
    16     6    14 1
    17     8    15 1
    18    12    16 1
    19    18    17 1
@<TRIPOS>SUBSTRUCTURE
     1 AJV         1 TEMP              0 ****  ****    0 ROOT
