@<TRIPOS>MOLECULE
AJV
   18    19     1     0     0
SMALL
bcc


@<TRIPOS>ATOM
      1 C4           0.0000     0.0000     0.0000 ca         1 AJV      -0.298000
      2 C5           1.4000     0.0000     0.0000 ca         1 AJV       0.023000
      3 C6          -2.2950    -0.0030    -0.3230 c          1 AJV       0.720700
      4 C7          -0.9700    -0.0010    -1.0340 cc         1 AJV      -0.014200
      5 N           -2.0540    -0.0070     0.9740 nc         1 AJV      -0.441400
      6 C            2.0850     0.0000     1.2000 ca         1 AJV      -0.183000
      7 O           -3.3940    -0.0000    -0.8500 o          1 AJV      -0.569100
      8 C1           1.3930     0.0000     2.4000 ca         1 AJV      -0.031000
      9 C2           0.0050    -0.0010     2.4210 ca         1 AJV       0.046900
     10 C3          -0.7130    -0.0070     1.2260 ca         1 AJV       0.155000
     11 F           -0.6520    -0.0010     3.6010 f          1 AJV      -0.116900
     12 O1           0.5720     0.0010    -2.8510 oh         1 AJV      -0.426300
     13 H1           1.9440    -0.0000    -0.9370 ha         1 AJV       0.102000
     14 H3           3.1690     0.0010     1.2020 ha         1 AJV       0.114000
     15 H4           1.9420     0.0000     3.3340 ha         1 AJV       0.113000
     16 H5           0.5530     0.0170    -3.7930 ho         1 AJV       0.423000
     17 H6          -1.5270    -0.0240    -2.9860 hn         1 AJV       0.286800
     18 N1          -0.7530    -0.0010    -2.3510 nu         1 AJV       0.093500
@<TRIPOS>BOND
     1     1     2 ar  
     2     1     4 2   
     3     1    10 ar  
     4     2     6 ar  
     5     2    13 1   
     6     3     4 1   
     7     3     5 1   
     8     3     7 2   
     9     4    18 1   
    10     5    10 2   
    11     6     8 ar  
    12     6    14 1   
    13     8     9 ar  
    14     8    15 1   
    15     9    10 ar  
    16     9    11 1   
    17    12    16 1   
    18    12    18 1   
    19    17    18 1   
@<TRIPOS>SUBSTRUCTURE
     1 AJV         1 TEMP              0 ****  ****    0 ROOT
