@<TRIPOS>MOLECULE
AJY
   21    22     1     0     0
SMALL
bcc


@<TRIPOS>ATOM
      1 C4           0.0000     0.0000     0.0000 ca         1 AJY      -0.179900
      2 C5           1.3900     0.0000     0.0000 ca         1 AJY      -0.017000
      3 C6          -2.3220     0.0100    -0.3790 c          1 AJY       0.507200
      4 C7          -1.0130     0.0060    -1.0830 cc         1 AJY       0.333900
      5 N           -2.0760     0.0050     0.9420 ns         1 AJY      -0.001100
      6 C            2.0750     0.0000     1.1980 ca         1 AJY      -0.098300
      7 O           -3.4180     0.0150    -0.9040 o          1 AJY      -0.616500
      8 C1           1.3780     0.0000     2.3960 ca         1 AJY       0.070100
      9 C2          -0.0030     0.0000     2.4050 ca         1 AJY      -0.104000
     10 C3          -0.7100     0.0000     1.2070 ca         1 AJY      -0.091400
     11 O1          -1.8980     0.0130    -3.2650 oh         1 AJY      -0.331500
     12 Br           2.3250    -0.0010     4.0320 br         1 AJY      -0.118100
     13 H1           1.9320    -0.0920    -0.9340 ha         1 AJY       0.120000
     14 H2           3.9480     0.0620     0.1870 hc         1 AJY       0.015700
     15 H3           3.9420    -0.9120     1.6640 hc         1 AJY       0.015700
     16 H4           3.9410     0.8540     1.7680 hc         1 AJY       0.015700
     17 H5          -2.7860     0.0060     1.6470 hn         1 AJY       0.181500
     18 H6          -0.5380     0.0000     3.3470 ha         1 AJY       0.121000
     19 H7          -1.5780     0.0160    -4.1520 ho         1 AJY       0.415000
     20 N1          -0.8030     0.0080    -2.3680 n2         1 AJY      -0.297200
     21 C8           3.5830     0.0010     1.2050 c3         1 AJY       0.060200
@<TRIPOS>BOND
     1     1     2 ar  
     2     1     4 1   
     3     1    10 ar  
     4     2     6 ar  
     5     2    13 1   
     6     3     4 1   
     7     3     5 1   
     8     3     7 2   
     9     4    20 2   
    10     5    10 1   
    11     5    17 1   
    12     6     8 ar  
    13     6    21 1   
    14     8     9 ar  
    15     8    12 1   
    16     9    10 ar  
    17     9    18 1   
    18    11    19 1   
    19    11    20 1   
    20    14    21 1   
    21    15    21 1   
    22    16    21 1   
@<TRIPOS>SUBSTRUCTURE
     1 AJY         1 TEMP              0 ****  ****    0 ROOT
