@<TRIPOS>MOLECULE
molecule
   21    22     1     0     0
SMALL
bcc


@<TRIPOS>ATOM
      1 C4           0.0000     0.0000     0.0000 ca         1 AJY      -0.172900
      2 C5           1.3900     0.0000     0.0000 ca         1 AJY      -0.049000
      3 C6          -2.3220     0.0100    -0.3790 c          1 AJY       0.598200
      4 C7          -1.0130     0.0060    -1.0830 cc         1 AJY       0.374900
      5 N           -2.0760     0.0050     0.9420 ns         1 AJY      -0.459100
      6 C            2.0750     0.0000     1.1980 ca         1 AJY      -0.090300
      7 O           -3.4180     0.0150    -0.9040 o          1 AJY      -0.562500
      8 C1           1.3780     0.0000     2.3960 ca         1 AJY       0.023100
      9 C2          -0.0030     0.0000     2.4050 ca         1 AJY      -0.137000
     10 C3          -0.7100     0.0000     1.2070 ca         1 AJY       0.069600
     11 O1          -1.8980     0.0130    -3.2650 oh         1 AJY      -0.348500
     12 Br           2.3250    -0.0010     4.0320 br         1 AJY      -0.078100
     13 H1           1.9320    -0.0920    -0.9340 ha         1 AJY       0.153000
     14 H2           3.9480     0.0620     0.1870 hc         1 AJY       0.053033
     15 H3           3.9410     0.8530     1.7690 hc         1 AJY       0.053033
     16 H4           3.9420    -0.9120     1.6630 hc         1 AJY       0.053033
     17 H5          -2.7860     0.0060     1.6470 hn         1 AJY       0.346500
     18 H6          -0.5380     0.0000     3.3470 ha         1 AJY       0.150000
     19 H7          -1.5780     0.0160    -4.1520 ho         1 AJY       0.432000
     20 N1          -0.8030     0.0080    -2.3680 n2         1 AJY      -0.360200
     21 C8           3.5830     0.0010     1.2050 c3         1 AJY      -0.048800
@<TRIPOS>BOND
     1    21     6 1
     2    12     8 1
     3     6     8 ar
     4     6     2 ar
     5     8     9 ar
     6     2     1 ar
     7     9    10 ar
     8     1    10 ar
     9     1     4 1
    10    10     5 1
    11     4    20 2
    12     4     3 1
    13    20    11 1
    14     5     3 1
    15     3     7 2
    16     2    13 1
    17    21    14 1
    18    21    15 1
    19    21    16 1
    20     5    17 1
    21     9    18 1
    22    11    19 1
@<TRIPOS>SUBSTRUCTURE
     1 AJY         1 TEMP              0 ****  ****    0 ROOT
