@<TRIPOS>MOLECULE
molecule
   37    40     1     0     0
SMALL
bcc


@<TRIPOS>ATOM
      1 N1           0.0000     0.0000     0.0000 nb         1 AJZ      -0.782000
      2 C2           1.3290     0.0000     0.0000 cp         1 AJZ       0.769500
      3 N3           2.0330     0.0000     1.1140 nb         1 AJZ      -0.728000
      4 C4           1.4260     0.0010     2.3210 ca         1 AJZ       0.503100
      5 C5           0.0290     0.0000     2.3550 ca         1 AJZ      -0.291700
      6 C6          -0.6790     0.0000     1.1390 ca         1 AJZ       0.696200
      7 CAB          1.9950    -0.0040    -3.7010 ca         1 AJZ      -0.132000
      8 CAC          1.1170     0.0020     4.6360 cc         1 AJZ      -0.068400
      9 CAD          3.3760    -0.0050    -3.7300 ca         1 AJZ      -0.134000
     10 CAE          1.3260    -0.0030    -2.4930 ca         1 AJZ      -0.095000
     11 CAF          1.9990     0.0020     3.6500 cd         1 AJZ      -0.247800
     12 CAG          3.4380    -0.0020    -1.3290 ca         1 AJZ      -0.111000
     13 CAH         -4.1130    -0.0600    -0.2040 c3         1 AJZ       0.135400
     14 CAI         -4.1240     1.0720     1.9070 c3         1 AJZ       0.135400
     15 CAJ         -2.5840     0.0000    -0.2430 c3         1 AJZ       0.130300
     16 CAK         -2.5940     1.1430     1.8900 c3         1 AJZ       0.130300
     17 OAN         -4.6100     1.0410     0.5620 os         1 AJZ      -0.421600
     18 SAO         -0.5250     0.0010     4.0220 ss         1 AJZ      -0.071500
     19 CAP          4.1000    -0.0020    -2.5450 ca         1 AJZ       0.090100
     20 CAQ          2.0450    -0.0010    -1.2990 cp         1 AJZ      -0.131500
     21 NAV         -2.0640    -0.0000     1.1330 nh         1 AJZ      -0.695300
     22 HOAA         5.7740    -0.8910    -2.5330 ho         1 AJZ       0.419000
     23 HAB          1.4350    -0.0050    -4.6280 ha         1 AJZ       0.136000
     24 HAC          1.3770     0.0030     5.6880 h4         1 AJZ       0.178000
     25 HAD          3.8960    -0.0060    -4.6810 ha         1 AJZ       0.140000
     26 HAE          0.2430    -0.0020    -2.4730 ha         1 AJZ       0.151000
     27 HAF          3.0680     0.0020     3.8240 ha         1 AJZ       0.167000
     28 HAG          4.0000     0.0760    -0.4060 ha         1 AJZ       0.165000
     29 HAH         -4.4260    -0.9890     0.2560 h1         1 AJZ       0.058200
     30 HAHA        -4.5020    -0.0010    -1.2130 h1         1 AJZ       0.058200
     31 HAI         -4.4370     0.1730     2.4240 h1         1 AJZ       0.058200
     32 HAIA        -4.5200     1.9430     2.4130 h1         1 AJZ       0.058200
     33 HAJ         -2.2710     0.9070    -0.7470 h1         1 AJZ       0.062700
     34 HAJA        -2.2020    -0.8640    -0.7730 h1         1 AJZ       0.062700
     35 HAK         -2.2820     2.0660     1.4160 h1         1 AJZ       0.062700
     36 HAKA        -2.2200     1.1080     2.9060 h1         1 AJZ       0.062700
     37 OAA          5.4590    -0.0030    -2.5790 oh         1 AJZ      -0.520100
@<TRIPOS>BOND
     1     1     2 ar
     2     1     6 ar
     3     2     3 ar
     4     2    20 1
     5     3     4 ar
     6     4     5 ar
     7     4    11 1
     8     5     6 ar
     9     5    18 1
    10     6    21 1
    11    37    19 1
    12     7     9 ar
    13     7    10 ar
    14     8    11 2
    15     8    18 1
    16     9    19 ar
    17    10    20 ar
    18    12    19 ar
    19    12    20 ar
    20    13    15 1
    21    13    17 1
    22    14    16 1
    23    14    17 1
    24    15    21 1
    25    16    21 1
    26    37    22 1
    27     7    23 1
    28     8    24 1
    29     9    25 1
    30    10    26 1
    31    11    27 1
    32    12    28 1
    33    13    29 1
    34    13    30 1
    35    14    31 1
    36    14    32 1
    37    15    33 1
    38    15    34 1
    39    16    35 1
    40    16    36 1
@<TRIPOS>SUBSTRUCTURE
     1 AJZ         1 TEMP              0 ****  ****    0 ROOT
