@<TRIPOS>MOLECULE
AJZ
   37    40     1     0     0
SMALL
bcc


@<TRIPOS>ATOM
      1 N1           0.0000     0.0000     0.0000 nb         1 AJZ      -0.665000
      2 C2           1.3290     0.0000     0.0000 cp         1 AJZ       0.692500
      3 N3           2.0330     0.0000     1.1140 nb         1 AJZ      -0.608000
      4 C4           1.4260     0.0010     2.3210 ca         1 AJZ       0.460100
      5 C5           0.0290     0.0000     2.3550 ca         1 AJZ      -0.253700
      6 C6          -0.6790     0.0000     1.1390 ca         1 AJZ       0.577200
      7 CAB          1.9950    -0.0040    -3.7010 ca         1 AJZ      -0.096000
      8 CAC          1.1170     0.0020     4.6360 cc         1 AJZ       0.010600
      9 CAD          3.3760    -0.0050    -3.7300 ca         1 AJZ      -0.120000
     10 CAE          1.3260    -0.0030    -2.4930 ca         1 AJZ      -0.080000
     11 CAF          1.9990     0.0020     3.6500 cd         1 AJZ      -0.214800
     12 CAG          3.4380    -0.0020    -1.3290 ca         1 AJZ      -0.101000
     13 CAH         -4.1130    -0.0600    -0.2040 c3         1 AJZ       0.213400
     14 CAI         -4.1240     1.0720     1.9070 c3         1 AJZ       0.213400
     15 CAJ         -2.5840     0.0000    -0.2430 c3         1 AJZ       0.088300
     16 CAK         -2.5940     1.1430     1.8900 c3         1 AJZ       0.088300
     17 OAN         -4.6100     1.0410     0.5620 os         1 AJZ      -0.409600
     18 SAO         -0.5250     0.0010     4.0220 ss         1 AJZ      -0.185500
     19 CAP          4.1000    -0.0020    -2.5450 ca         1 AJZ       0.111100
     20 CAQ          2.0450    -0.0010    -1.2990 cp         1 AJZ      -0.147500
     21 NAV         -2.0640    -0.0000     1.1330 nh         1 AJZ      -0.451300
     22 HOAA         5.7740    -0.8910    -2.5330 ho         1 AJZ       0.402000
     23 HAB          1.4350    -0.0050    -4.6280 ha         1 AJZ       0.105000
     24 HAC          1.3770     0.0030     5.6880 h4         1 AJZ       0.151000
     25 HAD          3.8960    -0.0060    -4.6810 ha         1 AJZ       0.112000
     26 HAE          0.2430    -0.0020    -2.4730 ha         1 AJZ       0.122000
     27 HAF          3.0680     0.0020     3.8240 ha         1 AJZ       0.133000
     28 HAG          4.0000     0.0760    -0.4060 ha         1 AJZ       0.135000
     29 HAH         -4.4260    -0.9890     0.2560 h1         1 AJZ       0.015700
     30 HAHA        -4.5020    -0.0010    -1.2130 h1         1 AJZ       0.015700
     31 HAI         -4.4370     0.1730     2.4240 h1         1 AJZ       0.015700
     32 HAIA        -4.5200     1.9430     2.4130 h1         1 AJZ       0.015700
     33 HAJ         -2.2710     0.9070    -0.7470 h1         1 AJZ       0.038950
     34 HAJA        -2.2020    -0.8640    -0.7730 h1         1 AJZ       0.038950
     35 HAK         -2.2820     2.0660     1.4160 h1         1 AJZ       0.038950
     36 HAKA        -2.2200     1.1080     2.9060 h1         1 AJZ       0.038950
     37 OAA          5.4590    -0.0030    -2.5790 oh         1 AJZ      -0.500100
@<TRIPOS>BOND
     1     1     2 ar  
     2     1     6 ar  
     3     2     3 ar  
     4     2    20 1   
     5     3     4 ar  
     6     4     5 ar  
     7     4    11 1   
     8     5     6 ar  
     9     5    18 1   
    10     6    21 1   
    11     7     9 ar  
    12     7    10 ar  
    13     7    23 1   
    14     8    11 2   
    15     8    18 1   
    16     8    24 1   
    17     9    19 ar  
    18     9    25 1   
    19    10    20 ar  
    20    10    26 1   
    21    11    27 1   
    22    12    19 ar  
    23    12    20 ar  
    24    12    28 1   
    25    13    15 1   
    26    13    17 1   
    27    13    29 1   
    28    13    30 1   
    29    14    16 1   
    30    14    17 1   
    31    14    31 1   
    32    14    32 1   
    33    15    21 1   
    34    15    33 1   
    35    15    34 1   
    36    16    21 1   
    37    16    35 1   
    38    16    36 1   
    39    19    37 1   
    40    22    37 1   
@<TRIPOS>SUBSTRUCTURE
     1 AJZ         1 TEMP              0 ****  ****    0 ROOT
