@<TRIPOS>MOLECULE
molecule
   46    49     1     0     0
SMALL
bcc


@<TRIPOS>ATOM
      1 C31          0.0000     0.0000     0.0000 cc         1 AK1       0.407200
      2 C27          1.3340     0.0000     0.0000 cd         1 AK1      -0.167700
      3 C23         -5.3510    -1.6180     8.1720 c3         1 AK1       0.675200
      4 C17         -3.5820    -0.7710     6.6170 ca         1 AK1      -0.123000
      5 C20         -5.4830     0.4220     4.9950 ca         1 AK1      -0.115000
      6 C15         -3.1890    -0.0780     5.4810 ca         1 AK1       0.067600
      7 C12          2.2200     0.0010    -1.2190 c3         1 AK1      -0.012100
      8 C14         -1.4480     0.0140     3.8620 c          1 AK1       0.772100
      9 C11          2.5190     1.4440    -1.6320 c3         1 AK1       0.240800
     10 C9           3.7850     2.6450    -3.3770 ca         1 AK1       0.771200
     11 C7           3.7880     4.9480    -3.3780 ca         1 AK1       0.723900
     12 C4           4.6110     2.6600    -4.5140 ca         1 AK1      -0.328700
     13 C3           4.9990     3.8900    -5.0480 ca         1 AK1       0.516100
     14 C2           5.8190     3.7490    -6.1790 cc         1 AK1      -0.252800
     15 C1           6.0850     2.5060    -6.5470 cd         1 AK1      -0.052400
     16 F26         -6.6210    -2.1660     7.9670 f          1 AK1      -0.223967
     17 N30         -0.5490     0.0050     1.2000 nc         1 AK1      -0.679000
     18 C29          0.2590     0.0080     2.2150 cd         1 AK1       0.587300
     19 S28          1.8800     0.0000     1.6750 ss         1 AK1      -0.224300
     20 N6           4.5560     5.0120    -4.4360 nb         1 AK1      -0.759000
     21 N10          3.3790     1.4450    -2.8170 nu         1 AK1      -0.908900
     22 N8           3.4060     3.8010    -2.8460 nb         1 AK1      -0.814000
     23 S5           5.3040     1.3590    -5.4700 ss         1 AK1      -0.104500
     24 F24         -5.3900    -0.7410     9.2620 f          1 AK1      -0.223967
     25 F25         -4.4360    -2.6440     8.4330 f          1 AK1      -0.223967
     26 C18         -4.9220    -0.8650     6.9380 ca         1 AK1      -0.163300
     27 C19         -5.8710    -0.2690     6.1280 ca         1 AK1      -0.099000
     28 C21         -4.1440     0.5190     4.6690 ca         1 AK1      -0.098000
     29 N22         -1.8320     0.0190     5.1530 ns         1 AK1      -0.487100
     30 N13         -0.1370     0.0130     3.5480 ns         1 AK1      -0.539400
     31 O16         -2.2840     0.0100     2.9780 o          1 AK1      -0.572100
     32 H31         -0.5850    -0.0030    -0.9110 h4         1 AK1       0.052100
     33 H17         -2.8390    -1.2380     7.2520 ha         1 AK1       0.143000
     34 H20         -6.2290     0.8870     4.3620 ha         1 AK1       0.145000
     35 H12          3.1480    -0.5100    -0.9920 hc         1 AK1       0.058700
     36 H12A         1.7160    -0.5100    -2.0320 hc         1 AK1       0.058700
     37 H11          3.0220     1.9550    -0.8200 h1         1 AK1       0.060700
     38 H11A         1.5900     1.9550    -1.8580 h1         1 AK1       0.060700
     39 H7           3.4590     5.8720    -2.9170 h5         1 AK1       0.060100
     40 H2           6.2100     4.6050    -6.7170 ha         1 AK1       0.166000
     41 H1           6.7010     2.2320    -7.3950 h4         1 AK1       0.177000
     42 HN10         3.6800     0.5790    -3.2170 hn         1 AK1       0.448800
     43 H19         -6.9220    -0.3440     6.3820 ha         1 AK1       0.147000
     44 H21         -3.8400     1.0600     3.7810 ha         1 AK1       0.178000
     45 HN22        -1.1410    -0.0160     5.8770 hn         1 AK1       0.318500
     46 HN13         0.5510     0.0180     4.2740 hn         1 AK1       0.331500
@<TRIPOS>BOND
     1    17     1 1
     2     1     2 2
     3     1    32 1
     4     2    19 1
     5     2     7 1
     6    16     3 1
     7     3    24 1
     8     3    26 1
     9     3    25 1
    10     4     6 ar
    11     4    26 ar
    12     4    33 1
    13    28     5 ar
    14    27     5 ar
    15     5    34 1
    16    29     6 1
    17     6    28 ar
    18     7     9 1
    19     7    35 1
    20     7    36 1
    21    30     8 1
    22    29     8 1
    23     8    31 2
    24     9    21 1
    25     9    37 1
    26     9    38 1
    27    22    10 ar
    28    10    21 1
    29    10    12 ar
    30    11    22 ar
    31    11    20 ar
    32    11    39 1
    33    13    12 ar
    34    12    23 1
    35    20    13 ar
    36    13    14 1
    37    14    15 2
    38    14    40 1
    39    15    23 1
    40    15    41 1
    41    17    18 2
    42    30    18 1
    43    18    19 1
    44    21    42 1
    45    26    27 ar
    46    27    43 1
    47    28    44 1
    48    29    45 1
    49    30    46 1
@<TRIPOS>SUBSTRUCTURE
     1 AK1         1 TEMP              0 ****  ****    0 ROOT
