@<TRIPOS>MOLECULE
molecule
   43    46     1     0     0
SMALL
bcc


@<TRIPOS>ATOM
      1 C27          0.0000     0.0000     0.0000 ca         1 AK2      -0.126000
      2 C26          1.3810     0.0000     0.0000 ca         1 AK2      -0.101000
      3 C24          1.3870    -0.0010     2.3970 ca         1 AK2       0.046400
      4 C23          0.0050    -0.0060     2.4040 ca         1 AK2      -0.160000
      5 C22         -0.6930    -0.0000     1.2030 ca         1 AK2       0.081600
      6 C17         -5.0930    -2.4630    -2.6410 cc         1 AK2       0.407200
      7 C15         -4.8160    -1.1880    -0.8340 cd         1 AK2       0.589300
      8 C13         -6.3850    -2.1940    -2.4430 cd         1 AK2      -0.167700
      9 C11         -8.0340    -4.0220    -2.7330 c3         1 AK2       0.240800
     10 C9         -12.4980    -7.7250    -4.5390 cd         1 AK2      -0.252800
     11 C8         -12.7470    -6.8630    -5.5120 cc         1 AK2      -0.053400
     12 C4          -9.9570    -7.5670    -1.9070 ca         1 AK2       0.723900
     13 C6          -9.7720    -5.7010    -3.2430 ca         1 AK2       0.771200
     14 C2         -11.4450    -7.3830    -3.6760 ca         1 AK2       0.515100
     15 C1         -10.8430    -6.1710    -4.0200 ca         1 AK2      -0.328700
     16 Cl28         2.2620    -0.0080     3.8970 cl         1 AK2      -0.108400
     17 C25          2.0740     0.0000     1.1960 ca         1 AK2      -0.138000
     18 N20         -2.0930     0.0060     1.2070 ns         1 AK2      -0.490100
     19 C19         -2.7720    -0.6280     0.2310 c          1 AK2       0.771100
     20 O21         -2.1720    -1.2870    -0.5970 o          1 AK2      -0.568100
     21 N18         -4.1150    -0.5330     0.1720 ns         1 AK2      -0.540400
     22 N16         -4.2750    -1.9130    -1.7620 nc         1 AK2      -0.678000
     23 S14         -6.5140    -1.1620    -1.0210 ss         1 AK2      -0.227300
     24 N10         -9.1500    -4.5020    -3.5530 nu         1 AK2      -0.909900
     25 N5          -9.3660    -6.4230    -2.2060 nb         1 AK2      -0.812000
     26 N3         -10.9580    -8.0460    -2.6010 nb         1 AK2      -0.759000
     27 S7         -11.6460    -5.4980    -5.4310 ss         1 AK2      -0.103500
     28 H27         -0.5420     0.0020    -0.9380 ha         1 AK2       0.169000
     29 H26          1.9210     0.0000    -0.9390 ha         1 AK2       0.142000
     30 H23         -0.5330    -0.0060     3.3440 ha         1 AK2       0.142000
     31 H17         -4.7430    -3.0860    -3.4550 h4         1 AK2       0.051100
     32 H12         -7.1970    -2.8230    -4.3070 hc         1 AK2       0.058200
     33 H12A        -8.3350    -1.9620    -3.2620 hc         1 AK2       0.058200
     34 H11         -8.3680    -3.8870    -1.7110 h1         1 AK2       0.061200
     35 H11A        -7.2300    -4.7480    -2.7570 h1         1 AK2       0.061200
     36 H8         -13.5240    -6.9840    -6.2570 h4         1 AK2       0.177000
     37 H4          -9.6000    -8.1290    -1.0530 h5         1 AK2       0.060100
     38 H25          3.1570     0.0020     1.1920 ha         1 AK2       0.144000
     39 HN20        -2.5890     0.4920     1.9270 hn         1 AK2       0.318500
     40 HN18        -4.6080     0.0080     0.8550 hn         1 AK2       0.330500
     41 HN10        -9.4630    -3.9640    -4.3360 hn         1 AK2       0.448800
     42 C12         -7.5310    -2.6880    -3.2850 c3         1 AK2      -0.012100
     43 H9         -13.0700    -8.6370    -4.4160 ha         1 AK2       0.166000
@<TRIPOS>BOND
     1     2     1 ar
     2     1     5 ar
     3     1    28 1
     4     2    17 ar
     5     2    29 1
     6    17     3 ar
     7     3    16 1
     8     3     4 ar
     9     5     4 ar
    10     4    30 1
    11     5    18 1
    12     8     6 2
    13     6    22 1
    14     6    31 1
    15    23     7 1
    16     7    21 1
    17     7    22 2
    18     9    42 1
    19    42     8 1
    20    42    32 1
    21    42    33 1
    22    23     8 1
    23    24     9 1
    24     9    34 1
    25     9    35 1
    26    11    10 2
    27    10    14 1
    28    10    43 1
    29    27    11 1
    30    11    36 1
    31    26    12 ar
    32    25    12 ar
    33    12    37 1
    34    15    13 ar
    35    24    13 1
    36    13    25 ar
    37    15    14 ar
    38    14    26 ar
    39    27    15 1
    40    17    38 1
    41    19    18 1
    42    18    39 1
    43    20    19 2
    44    19    21 1
    45    21    40 1
    46    24    41 1
@<TRIPOS>SUBSTRUCTURE
     1 AK2         1 TEMP              0 ****  ****    0 ROOT
