@<TRIPOS>MOLECULE
AK3
   49    52     1     0     0
SMALL
bcc


@<TRIPOS>ATOM
      1 C31          0.0000     0.0000     0.0000 cc         1 AK3       0.321200
      2 N29          0.6800     0.0010     2.1040 na         1 AK3       0.482900
      3 C24         14.7210     0.8680     7.3030 ca         1 AK3      -0.084000
      4 C23         15.6580     1.8350     7.6050 ca         1 AK3      -0.192300
      5 C22         15.5740     3.0890     7.0280 ca         1 AK3      -0.059000
      6 C17          3.6220    -0.0010    -0.6450 ca         1 AK3       0.638900
      7 C20         13.6100     2.4130     5.8340 ca         1 AK3      -0.070000
      8 C15          1.4110     0.0000     0.0000 ca         1 AK3       0.275000
      9 C13          3.1940    -0.0010     1.6240 ca         1 AK3       0.562200
     10 C14          1.8190     0.0000     1.3450 ca         1 AK3      -0.471800
     11 C10         11.4590     0.5300     5.8830 c          1 AK3       0.535100
     12 C8           9.2030    -0.0550     5.4440 cc         1 AK3       0.422300
     13 C4           6.7940     0.1960     5.0010 cc         1 AK3      -0.130700
     14 C6           7.4750     1.3290     5.1770 cd         1 AK3       0.393200
     15 C3           5.3180     0.0850     4.7180 c3         1 AK3       0.074900
     16 C2           5.0850     0.1070     3.2060 c3         1 AK3       0.163800
     17 F28         17.8710     1.0160     7.8660 f          1 AK3      -0.208633
     18 N7           8.7640     1.1650     5.4130 nd         1 AK3      -0.551000
     19 S5           7.9210    -1.1490     5.1550 ss         1 AK3      -0.318300
     20 C32          0.6210     0.0010     3.5680 c3         1 AK3       0.027600
     21 N30         -0.4180     0.0010     1.2350 nd         1 AK3      -0.614100
     22 N16          2.3470    -0.0010    -0.9580 nb         1 AK3      -0.612000
     23 N18          4.0480    -0.0010     0.6070 nb         1 AK3      -0.694000
     24 N1           3.6500     0.0000     2.9310 nu         1 AK3      -0.525900
     25 C25         16.7740     1.5260     8.5700 c3         1 AK3       0.640200
     26 F26         17.1520     2.6940     9.2380 f          1 AK3      -0.208633
     27 F27         16.3370     0.5770     9.5010 f          1 AK3      -0.208633
     28 C21         14.5510     3.3770     6.1420 ca         1 AK3      -0.084000
     29 C19         13.6920     1.1550     6.4140 ca         1 AK3      -0.081400
     30 N11         12.7400     0.1770     6.1040 ns         1 AK3      -0.046100
     31 O12         11.1440     1.7050     5.8740 o          1 AK3      -0.620100
     32 H31         -0.6310    -0.0000    -0.8800 h4         1 AK3       0.023800
     33 H24         14.7870    -0.1130     7.7570 ha         1 AK3       0.118000
     34 H22         16.3110     3.8450     7.2680 ha         1 AK3       0.118000
     35 H17          4.3540    -0.0010    -1.4440 h5         1 AK3      -0.001900
     36 H20         12.8090     2.6400     5.1410 ha         1 AK3       0.153000
     37 H6           7.0090     2.3050     5.1310 h4         1 AK3       0.005100
     38 H3           4.7990     0.9190     5.1750 hc         1 AK3       0.023200
     39 H3A          4.9400    -0.8440     5.1270 hc         1 AK3       0.023200
     40 H2           5.6030    -0.7270     2.7490 h1         1 AK3       0.034200
     41 H2A          5.4630     1.0360     2.7960 h1         1 AK3       0.034200
     42 H32         -0.4140     0.0260     3.8870 h1         1 AK3       0.020700
     43 H32A         1.1380     0.8730     3.9500 h1         1 AK3       0.020700
     44 H32B         1.0940    -0.8950     3.9490 h1         1 AK3       0.020700
     45 HN1          3.0030    -0.1020     3.6870 hn         1 AK3       0.297800
     46 H21         14.4870     4.3590     5.6900 ha         1 AK3       0.113000
     47 HN11        12.9880    -0.7910     6.1550 hn         1 AK3       0.161500
     48 HN9         10.7880    -1.3850     5.6550 hn         1 AK3       0.167500
     49 N9          10.5250    -0.4190     5.6720 ns         1 AK3      -0.083400
@<TRIPOS>BOND
     1     1     8 1   
     2     1    21 2   
     3     1    32 1   
     4     2    10 1   
     5     2    20 1   
     6     2    21 1   
     7     3     4 ar  
     8     3    29 ar  
     9     3    33 1   
    10     4     5 ar  
    11     4    25 1   
    12     5    28 ar  
    13     5    34 1   
    14     6    22 ar  
    15     6    23 ar  
    16     6    35 1   
    17     7    28 ar  
    18     7    29 ar  
    19     7    36 1   
    20     8    10 ar  
    21     8    22 ar  
    22     9    10 ar  
    23     9    23 ar  
    24     9    24 1   
    25    11    30 1   
    26    11    31 2   
    27    11    49 1   
    28    12    18 2   
    29    12    19 1   
    30    12    49 1   
    31    13    14 2   
    32    13    15 1   
    33    13    19 1   
    34    14    18 1   
    35    14    37 1   
    36    15    16 1   
    37    15    38 1   
    38    15    39 1   
    39    16    24 1   
    40    16    40 1   
    41    16    41 1   
    42    17    25 1   
    43    20    42 1   
    44    20    43 1   
    45    20    44 1   
    46    24    45 1   
    47    25    26 1   
    48    25    27 1   
    49    28    46 1   
    50    29    30 1   
    51    30    47 1   
    52    48    49 1   
@<TRIPOS>SUBSTRUCTURE
     1 AK3         1 TEMP              0 ****  ****    0 ROOT
