@<TRIPOS>MOLECULE
molecule
   48    51     1     0     0
SMALL
bcc


@<TRIPOS>ATOM
      1 C30          0.0000     0.0000     0.0000 c          1 AK4       0.863600
      2 C28         -4.2480     0.7640    -0.7310 cc         1 AK4       0.237200
      3 C24          2.3080   -13.0670    -1.6960 ca         1 AK4      -0.103000
      4 C23          2.4100   -14.2210    -2.4510 ca         1 AK4       0.042400
      5 C22          2.0630   -15.4420    -1.8990 ca         1 AK4      -0.140000
      6 C17         -4.9570    -2.8120    -0.2320 ca         1 AK4       0.663900
      7 C20          1.5120   -14.3630     0.1660 ca         1 AK4      -0.159000
      8 C15         -4.2780    -0.6390    -0.5820 ca         1 AK4       0.302000
      9 C13         -2.7170    -2.4760    -0.6850 ca         1 AK4       0.745200
     10 C14         -2.9640    -1.0990    -0.7800 ca         1 AK4      -0.291800
     11 C10          1.4040   -10.8080    -0.0660 c          1 AK4       0.764100
     12 C8           1.0740    -8.4600     0.0140 cd         1 AK4       0.560300
     13 C4           0.5590    -6.1720    -0.7320 cd         1 AK4      -0.133700
     14 C6           0.4710    -7.1230    -1.6640 cc         1 AK4       0.383200
     15 C3           0.2930    -4.7020    -0.9380 c3         1 AK4      -0.022100
     16 C2          -1.1840    -4.4090    -0.6700 c3         1 AK4       0.248800
     17 O32          1.3420     0.0000     0.0000 o          1 AK4      -0.819300
     18 O31         -0.6040     0.0000     1.0470 o          1 AK4      -0.819300
     19 C29         -0.7540     0.0050    -1.3050 c3         1 AK4      -0.050700
     20 N26         -2.1940     0.0040    -1.0360 na         1 AK4       0.141900
     21 N27         -3.0260     1.1310    -0.9970 nd         1 AK4      -0.485100
     22 N18         -3.7360    -3.2840    -0.4120 nb         1 AK4      -0.824000
     23 N16         -5.2390    -1.5320    -0.3110 nb         1 AK4      -0.748000
     24 S5           1.0390    -6.9340     0.7830 ss         1 AK4      -0.215300
     25 N7           0.7530    -8.3380    -1.2360 nc         1 AK4      -0.680000
     26 O12          1.1090   -10.7970    -1.2450 o          1 AK4      -0.577100
     27 N11          1.7250   -11.9680     0.5390 ns         1 AK4      -0.521100
     28 C19          1.8580   -13.1360    -0.3830 ca         1 AK4       0.099600
     29 C21          1.6150   -15.5120    -0.5930 ca         1 AK4      -0.111000
     30 H28         -5.1000     1.4260    -0.6400 h4         1 AK4       0.051800
     31 H24          2.5790   -12.1110    -2.1270 ha         1 AK4       0.183000
     32 H22          2.1430   -16.3450    -2.4920 ha         1 AK4       0.140000
     33 H17         -5.7570    -3.5080    -0.0110 h5         1 AK4       0.038100
     34 H20          1.1610   -14.4190     1.1900 ha         1 AK4       0.134000
     35 H6           0.1910    -6.9130    -2.6900 h4         1 AK4       0.050100
     36 H3           0.9060    -4.1250    -0.2550 hc         1 AK4       0.070700
     37 H3A          0.5360    -4.4310    -1.9580 hc         1 AK4       0.070700
     38 H2          -1.7960    -4.9860    -1.3530 h1         1 AK4       0.049200
     39 H2A         -1.4270    -4.6800     0.3500 h1         1 AK4       0.049200
     40 H29         -0.4930     0.8920    -1.8690 h1         1 AK4       0.055700
     41 H29A        -0.4930    -0.8760    -1.8770 h1         1 AK4       0.055700
     42 HN1         -0.6900    -2.3650    -1.1070 hn         1 AK4       0.468800
     43 HN9          1.6680    -9.6630     1.6040 hn         1 AK4       0.325500
     44 HN11         1.9090   -11.9850     1.5230 hn         1 AK4       0.327500
     45 H21          1.3450   -16.4700    -0.1650 ha         1 AK4       0.134000
     46 N1          -1.4420    -2.9810    -0.8700 nu         1 AK4      -0.911900
     47 N9           1.4070    -9.6580     0.6380 ns         1 AK4      -0.542400
     48 Cl25         2.9710   -14.1380    -4.0910 cl         1 AK4      -0.103400
@<TRIPOS>BOND
     1    18     1 1
     2    19     1 1
     3     1    17 1
     4     8     2 1
     5     2    21 2
     6     2    30 1
     7     3    28 ar
     8     3     4 ar
     9     3    31 1
    10    48     4 1
    11     4     5 ar
    12     5    29 ar
    13     5    32 1
    14     6    22 ar
    15     6    23 ar
    16     6    33 1
    17    28     7 ar
    18     7    29 ar
    19     7    34 1
    20    23     8 ar
    21     8    10 ar
    22    22     9 ar
    23     9    46 1
    24     9    10 ar
    25    10    20 1
    26    47    11 1
    27    27    11 1
    28    11    26 2
    29    25    12 2
    30    47    12 1
    31    12    24 1
    32    14    13 2
    33    13    24 1
    34    13    15 1
    35    25    14 1
    36    14    35 1
    37    15    16 1
    38    15    36 1
    39    15    37 1
    40    16    46 1
    41    16    38 1
    42    16    39 1
    43    20    19 1
    44    19    40 1
    45    19    41 1
    46    20    21 1
    47    46    42 1
    48    47    43 1
    49    27    28 1
    50    27    44 1
    51    29    45 1
@<TRIPOS>SUBSTRUCTURE
     1 AK4         1 TEMP              0 ****  ****    0 ROOT
