@<TRIPOS>MOLECULE
AK5
   51    53     1     0     0
SMALL
bcc


@<TRIPOS>ATOM
      1 C28          0.0000     0.0000     0.0000 ca         1 AK5      -0.130500
      2 C27          1.3800     0.0000     0.0000 ca         1 AK5      -0.079000
      3 C26          2.0730     0.0000     1.1970 ca         1 AK5      -0.123000
      4 C24          0.0050     0.0120     2.4040 ca         1 AK5      -0.130500
      5 C23         -0.6930     0.0060     1.2030 ca         1 AK5      -0.083400
      6 C16         -4.9290     0.2860     1.1320 ca         1 AK5      -0.051000
      7 C17         -6.3000     0.4100     1.0750 ca         1 AK5      -0.205000
      8 O19         -8.3550     0.0010    -0.0470 os         1 AK5      -0.315900
      9 C20         -2.7730    -0.4950     0.1630 c          1 AK5       0.589700
     10 C15         -4.2420    -0.3670     0.1060 ca         1 AK5      -0.187600
     11 C13         -6.3260    -0.7790    -1.0230 ca         1 AK5      -0.136400
     12 C14         -4.9490    -0.9010    -0.9740 ca         1 AK5      -0.001000
     13 C9          -4.8710    -7.8120    -5.5070 ca         1 AK5       0.705900
     14 C7          -6.3250    -8.5610    -7.1310 ca         1 AK5       0.563200
     15 C5          -6.7550    -6.5500    -5.9140 ca         1 AK5       0.623600
     16 C6          -7.1470    -7.4650    -6.8890 ca         1 AK5      -0.292500
     17 C3          -6.6260    -2.4630    -2.6800 c          1 AK5       0.555100
     18 C2          -6.7620    -4.3780    -4.2500 c3         1 AK5       0.099700
     19 C1          -7.4500    -3.0980    -3.7700 c3         1 AK5      -0.082400
     20 Br30        -8.7500    -7.2200    -7.8610 br         1 AK5      -0.075100
     21 N8          -5.2040    -8.6980    -6.4240 nb         1 AK5      -0.712000
     22 N10         -5.6210    -6.7610    -5.2480 nb         1 AK5      -0.699000
     23 S4          -7.7510    -5.1400    -5.5590 ss         1 AK5      -0.412400
     24 O12         -5.5900    -2.9830    -2.3220 o          1 AK5      -0.624100
     25 N11         -7.0400    -1.3180    -2.1020 ns         1 AK5      -0.022100
     26 C18         -7.0040    -0.1200     0.0020 ca         1 AK5       0.147100
     27 C29         -8.9850     0.6880     1.0370 c3         1 AK5       0.248700
     28 O21         -2.1770    -1.0660    -0.7300 o          1 AK5      -0.626100
     29 N22         -2.0920     0.0180     1.2060 ns         1 AK5      -0.034100
     30 C25          1.3860    -0.0010     2.3970 ca         1 AK5      -0.079000
     31 H28         -0.5420    -0.0020    -0.9380 ha         1 AK5       0.127000
     32 H27          1.9220    -0.0020    -0.9380 ha         1 AK5       0.101500
     33 H26          3.1560    -0.0050     1.1950 ha         1 AK5       0.102000
     34 H24         -0.5330     0.0140     3.3440 ha         1 AK5       0.127000
     35 H16         -4.3820     0.7010     1.9710 ha         1 AK5       0.099000
     36 H17         -6.8300     0.9170     1.8720 ha         1 AK5       0.124000
     37 H14         -4.4210    -1.4090    -1.7720 ha         1 AK5       0.171000
     38 H9          -3.9540    -7.9540    -4.9490 h5         1 AK5       0.001100
     39 H2          -6.6660    -5.0690    -3.4210 h1         1 AK5       0.067700
     40 H2A         -5.7790    -4.1360    -4.6350 h1         1 AK5       0.067700
     41 H1          -8.4340    -3.3400    -3.3840 hc         1 AK5       0.038700
     42 H1A         -7.5470    -2.4070    -4.5980 hc         1 AK5       0.038700
     43 HN31        -7.5140    -9.3910    -8.6180 hn         1 AK5       0.278800
     44 HN3A        -6.0740   -10.2870    -8.2590 hn         1 AK5       0.278800
     45 HN11        -7.8410    -0.8380    -2.4610 hn         1 AK5       0.173500
     46 H29        -10.0560     0.7150     0.8730 h1         1 AK5       0.000033
     47 H29A        -8.6020     1.7000     1.0940 h1         1 AK5       0.000033
     48 H29B        -8.7750     0.1690     1.9640 h1         1 AK5       0.000033
     49 HN22        -2.5850     0.3190     2.0230 hn         1 AK5       0.170500
     50 H25          1.9310     0.0010     3.3330 ha         1 AK5       0.101500
     51 N31         -6.6700    -9.5000    -8.0920 nv         1 AK5      -0.497500
@<TRIPOS>BOND
     1     1     2 ar  
     2     1     5 ar  
     3     1    31 1   
     4     2     3 ar  
     5     2    32 1   
     6     3    30 ar  
     7     3    33 1   
     8     4     5 ar  
     9     4    30 ar  
    10     4    34 1   
    11     5    29 1   
    12     6     7 ar  
    13     6    10 ar  
    14     6    35 1   
    15     7    26 ar  
    16     7    36 1   
    17     8    26 1   
    18     8    27 1   
    19     9    10 1   
    20     9    28 2   
    21     9    29 1   
    22    10    12 ar  
    23    11    12 ar  
    24    11    25 1   
    25    11    26 ar  
    26    12    37 1   
    27    13    21 ar  
    28    13    22 ar  
    29    13    38 1   
    30    14    16 ar  
    31    14    21 ar  
    32    14    51 1   
    33    15    16 ar  
    34    15    22 ar  
    35    15    23 1   
    36    16    20 1   
    37    17    19 1   
    38    17    24 2   
    39    17    25 1   
    40    18    19 1   
    41    18    23 1   
    42    18    39 1   
    43    18    40 1   
    44    19    41 1   
    45    19    42 1   
    46    25    45 1   
    47    27    46 1   
    48    27    47 1   
    49    27    48 1   
    50    29    49 1   
    51    30    50 1   
    52    43    51 1   
    53    44    51 1   
@<TRIPOS>SUBSTRUCTURE
     1 AK5         1 TEMP              0 ****  ****    0 ROOT
