@<TRIPOS>MOLECULE
molecule
   51    53     1     0     0
SMALL
bcc


@<TRIPOS>ATOM
      1 C28          0.0000     0.0000     0.0000 ca         1 AK5      -0.154000
      2 C27          1.3800     0.0000     0.0000 ca         1 AK5      -0.108500
      3 C26          2.0730     0.0000     1.1970 ca         1 AK5      -0.151000
      4 C24          0.0050     0.0120     2.4040 ca         1 AK5      -0.154000
      5 C23         -0.6930     0.0060     1.2030 ca         1 AK5       0.061600
      6 C16         -4.9290     0.2860     1.1320 ca         1 AK5      -0.081000
      7 C17         -6.3000     0.4100     1.0750 ca         1 AK5      -0.217000
      8 O19         -8.3550     0.0010    -0.0470 os         1 AK5      -0.332900
      9 C20         -2.7730    -0.4950     0.1630 c          1 AK5       0.679700
     10 C15         -4.2420    -0.3670     0.1060 ca         1 AK5      -0.174600
     11 C13         -6.3260    -0.7790    -1.0230 ca         1 AK5       0.018600
     12 C14         -4.9490    -0.9010    -0.9740 ca         1 AK5      -0.033000
     13 C9          -4.8710    -7.8120    -5.5070 ca         1 AK5       0.747900
     14 C7          -6.3250    -8.5610    -7.1310 ca         1 AK5       0.764200
     15 C5          -6.7550    -6.5500    -5.9140 ca         1 AK5       0.629600
     16 C6          -7.1470    -7.4650    -6.8890 ca         1 AK5      -0.340500
     17 C3          -6.6260    -2.4630    -2.6800 c          1 AK5       0.659100
     18 C2          -6.7620    -4.3780    -4.2500 c3         1 AK5       0.006700
     19 C1          -7.4500    -3.0980    -3.7700 c3         1 AK5      -0.148400
     20 Br30        -8.7500    -7.2200    -7.8610 br         1 AK5      -0.075100
     21 N8          -5.2040    -8.6980    -6.4240 nb         1 AK5      -0.814000
     22 N10         -5.6210    -6.7610    -5.2480 nb         1 AK5      -0.793000
     23 S4          -7.7510    -5.1400    -5.5590 ss         1 AK5      -0.286400
     24 O12         -5.5900    -2.9830    -2.3220 o          1 AK5      -0.584100
     25 N11         -7.0400    -1.3180    -2.1020 ns         1 AK5      -0.470100
     26 C18         -7.0040    -0.1200     0.0020 ca         1 AK5       0.135100
     27 C29         -8.9850     0.6880     1.0370 c3         1 AK5       0.129700
     28 O21         -2.1770    -1.0660    -0.7300 o          1 AK5      -0.585100
     29 N22         -2.0920     0.0180     1.2060 ns         1 AK5      -0.473100
     30 C25          1.3860    -0.0010     2.3970 ca         1 AK5      -0.108500
     31 H28         -0.5420    -0.0020    -0.9380 ha         1 AK5       0.147500
     32 H27          1.9220    -0.0020    -0.9380 ha         1 AK5       0.131000
     33 H26          3.1560    -0.0050     1.1950 ha         1 AK5       0.128000
     34 H24         -0.5330     0.0140     3.3440 ha         1 AK5       0.147500
     35 H16         -4.3820     0.7010     1.9710 ha         1 AK5       0.126000
     36 H17         -6.8300     0.9170     1.8720 ha         1 AK5       0.141000
     37 H14         -4.4210    -1.4090    -1.7720 ha         1 AK5       0.198000
     38 H9          -3.9540    -7.9540    -4.9490 h5         1 AK5       0.066100
     39 H2          -6.6660    -5.0690    -3.4210 h1         1 AK5       0.096200
     40 H2A         -5.7790    -4.1360    -4.6350 h1         1 AK5       0.096200
     41 H1          -8.4340    -3.3400    -3.3840 hc         1 AK5       0.071200
     42 H1A         -7.5470    -2.4070    -4.5980 hc         1 AK5       0.071200
     43 HN31        -7.5140    -9.3910    -8.6180 hn         1 AK5       0.451300
     44 HN3A        -6.0740   -10.2870    -8.2590 hn         1 AK5       0.451300
     45 HN11        -7.8410    -0.8380    -2.4610 hn         1 AK5       0.333500
     46 H29        -10.0560     0.7150     0.8730 h1         1 AK5       0.045033
     47 H29A        -8.6020     1.7000     1.0940 h1         1 AK5       0.045033
     48 H29B        -8.7750     0.1690     1.9640 h1         1 AK5       0.045033
     49 HN22        -2.5850     0.3190     2.0230 hn         1 AK5       0.322500
     50 H25          1.9310     0.0010     3.3330 ha         1 AK5       0.131000
     51 N31         -6.6700    -9.5000    -8.0920 nv         1 AK5      -0.990500
@<TRIPOS>BOND
     1     5     1 ar
     2     1     2 ar
     3     1    31 1
     4     3     2 ar
     5     2    32 1
     6    30     3 ar
     7     3    33 1
     8     4     5 ar
     9     4    30 ar
    10     4    34 1
    11    29     5 1
    12     7     6 ar
    13    10     6 ar
    14     6    35 1
    15    26     7 ar
    16     7    36 1
    17     8    27 1
    18     8    26 1
    19    10     9 1
    20     9    28 2
    21     9    29 1
    22    12    10 ar
    23    25    11 1
    24    11    26 ar
    25    11    12 ar
    26    12    37 1
    27    21    13 ar
    28    13    22 ar
    29    13    38 1
    30    51    14 1
    31    14    16 ar
    32    14    21 ar
    33    16    15 ar
    34    15    23 1
    35    15    22 ar
    36    20    16 1
    37    19    17 1
    38    17    25 1
    39    17    24 2
    40    23    18 1
    41    19    18 1
    42    18    39 1
    43    18    40 1
    44    19    41 1
    45    19    42 1
    46    51    43 1
    47    51    44 1
    48    25    45 1
    49    27    46 1
    50    27    47 1
    51    27    48 1
    52    29    49 1
    53    30    50 1
@<TRIPOS>SUBSTRUCTURE
     1 AK5         1 TEMP              0 ****  ****    0 ROOT
