@<TRIPOS>MOLECULE
molecule
   57    60     1     0     0
SMALL
bcc


@<TRIPOS>ATOM
      1 C30          0.0000     0.0000     0.0000 ca         1 AK6      -0.026000
      2 C28          0.0990    -0.0070     2.4200 ca         1 AK6       0.470800
      3 C26          2.0620     0.0000     1.2090 ca         1 AK6       0.467200
      4 C23          7.8540     6.5640    -6.9450 c3         1 AK6       0.129700
      5 C22          6.0710    -1.1730   -11.4840 ca         1 AK6      -0.143500
      6 C17          6.5160     0.0540   -11.9570 ca         1 AK6       0.054600
      7 C20          6.0120    -2.0110   -13.7260 ca         1 AK6      -0.145000
      8 C12          6.6260     4.5800    -7.3960 ca         1 AK6       0.129100
      9 C11          7.4080     4.4250    -8.5310 ca         1 AK6      -0.214000
     10 C10          7.2130     3.3450    -9.3650 ca         1 AK6      -0.084000
     11 C9           6.2270     2.4020    -9.0660 ca         1 AK6      -0.171600
     12 C8           5.4380     2.5560    -7.9240 ca         1 AK6      -0.034000
     13 C7           5.6380     3.6420    -7.0920 ca         1 AK6       0.021600
     14 C3           4.4500     2.7130    -5.2490 c          1 AK6       0.658100
     15 C2           3.3570     1.5070    -3.3780 c3         1 AK6       0.027700
     16 C1           3.6940     2.8830    -3.9560 c3         1 AK6      -0.140400
     17 O15          5.1570     0.4240    -9.6980 o          1 AK6      -0.590100
     18 N16          6.7770     1.0970   -11.0610 ns         1 AK6      -0.478100
     19 C21          5.8200    -2.2020   -12.3710 ca         1 AK6      -0.113500
     20 C19          6.4450    -0.7870   -14.2010 ca         1 AK6      -0.113500
     21 C18          6.7030     0.2450   -13.3200 ca         1 AK6      -0.143500
     22 N5           4.8540     3.7970    -5.9400 ns         1 AK6      -0.466100
     23 O6           4.6950     1.6010    -5.6670 o          1 AK6      -0.593100
     24 S4           2.4470     1.7110    -1.8230 ss         1 AK6      -0.363200
     25 C25          1.3820     0.0000     0.0000 ca         1 AK6      -0.237600
     26 C29         -0.6570    -0.0010     1.2320 ca         1 AK6      -0.222100
     27 C33         -2.0620     0.0040     1.6430 cc         1 AK6      -0.191200
     28 C32         -2.0770     0.0010     2.9850 cd         1 AK6      -0.094100
     29 N31         -0.7950    -0.0060     3.4650 na         1 AK6      -0.281100
     30 N27          1.4240    -0.0110     2.3590 nb         1 AK6      -0.713000
     31 H30         -0.5570    -0.0000    -0.9290 ha         1 AK6       0.143000
     32 H26          3.1450     0.0000     1.2060 h4         1 AK6       0.028100
     33 H24          1.5610    -0.5100    -2.0590 h1         1 AK6       0.064200
     34 H24A         3.0880    -0.5090    -1.1660 h1         1 AK6       0.064200
     35 H23          7.6290     6.9840    -7.9190 h1         1 AK6       0.045033
     36 H23A         7.8960     7.3590    -6.2110 h1         1 AK6       0.045033
     37 H23B         8.8100     6.0560    -6.9830 h1         1 AK6       0.045033
     38 H20          5.8120    -2.8200   -14.4190 ha         1 AK6       0.128000
     39 H11          8.1740     5.1560    -8.7640 ha         1 AK6       0.141000
     40 H10          7.8250     3.2270   -10.2510 ha         1 AK6       0.126000
     41 H8           4.6720     1.8260    -7.6900 ha         1 AK6       0.198000
     42 H2           2.7450     0.9580    -4.0840 h1         1 AK6       0.074200
     43 H2A          4.2720     0.9590    -3.1910 h1         1 AK6       0.074200
     44 H1           2.7780     3.4300    -4.1430 hc         1 AK6       0.075200
     45 H1A          4.3050     3.4310    -3.2500 hc         1 AK6       0.075200
     46 HN16         7.5440     1.7180   -11.2270 hn         1 AK6       0.323500
     47 H21          5.4760    -3.1610   -12.0030 ha         1 AK6       0.131000
     48 H19          6.5920    -0.6400   -15.2640 ha         1 AK6       0.131000
     49 H18          7.0460     1.2030   -13.6920 ha         1 AK6       0.147500
     50 HN5          4.6860     4.7130    -5.5720 hn         1 AK6       0.334500
     51 H33         -2.9260     0.0090     0.9880 ha         1 AK6       0.157000
     52 H32         -2.9700     0.0040     3.5980 h4         1 AK6       0.170000
     53 HN31        -0.5440    -0.0100     4.4340 hn         1 AK6       0.304700
     54 C24          2.1420     0.0010    -1.3000 c3         1 AK6       0.085000
     55 O13          6.8260     5.6430    -6.5750 os         1 AK6      -0.335900
     56 C14          6.0160     1.2450    -9.9590 c          1 AK6       0.680700
     57 H22          5.9200    -1.3230   -10.4220 ha         1 AK6       0.147500
@<TRIPOS>BOND
     1    25     1 ar
     2     1    26 ar
     3     1    31 1
     4    30     2 ar
     5    26     2 ar
     6     2    29 1
     7    25     3 ar
     8     3    30 ar
     9     3    32 1
    10    54    24 1
    11    54    25 1
    12    54    33 1
    13    54    34 1
    14     4    55 1
    15     4    35 1
    16     4    36 1
    17     4    37 1
    18    19     5 ar
    19     5     6 ar
    20     5    57 1
    21    21     6 ar
    22     6    18 1
    23     7    20 ar
    24     7    19 ar
    25     7    38 1
    26     9     8 ar
    27     8    13 ar
    28     8    55 1
    29    18    56 1
    30    56    17 2
    31    56    11 1
    32    10     9 ar
    33     9    39 1
    34    10    11 ar
    35    10    40 1
    36    11    12 ar
    37    12    13 ar
    38    12    41 1
    39    13    22 1
    40    23    14 2
    41    22    14 1
    42    14    16 1
    43    24    15 1
    44    15    16 1
    45    15    42 1
    46    15    43 1
    47    16    44 1
    48    16    45 1
    49    18    46 1
    50    19    47 1
    51    20    21 ar
    52    20    48 1
    53    21    49 1
    54    22    50 1
    55    26    27 1
    56    27    28 2
    57    27    51 1
    58    29    28 1
    59    28    52 1
    60    29    53 1
@<TRIPOS>SUBSTRUCTURE
     1 AK6         1 TEMP              0 ****  ****    0 ROOT
