@<TRIPOS>MOLECULE
AK7
   45    47     1     0     0
SMALL
bcc


@<TRIPOS>ATOM
      1 N29          0.0000     0.0000     0.0000 nv         1 AK7      -0.654500
      2 C24         12.7750     1.7160     8.3450 ca         1 AK7      -0.070000
      3 C23         13.8090     2.6100     8.5470 ca         1 AK7      -0.085000
      4 C22         15.1020     2.2620     8.2030 ca         1 AK7      -0.063000
      5 C16         10.7690     0.0030     7.2400 c          1 AK7       0.535100
      6 O18         10.5510     1.1980     7.1770 o          1 AK7      -0.621100
      7 C20         14.3340     0.1240     7.4460 ca         1 AK7      -0.081000
      8 C12          8.5280    -0.4170     6.5910 cc         1 AK7       0.420300
      9 C14          6.9480     1.0880     6.1330 cd         1 AK7       0.391200
     10 C10          6.1990     0.0060     5.9140 cc         1 AK7      -0.128700
     11 C9           4.7520     0.0020     5.4950 c3         1 AK7       0.073900
     12 C8           4.6640     0.0010     3.9660 c3         1 AK7       0.157800
     13 C4           3.5730     0.0000     0.0000 ca         1 AK7       0.692900
     14 C6           2.9260    -0.0040     2.2120 ca         1 AK7       0.569200
     15 C2           1.3120    -0.0020     0.4490 ca         1 AK7       0.603200
     16 C1           1.5920    -0.0070     1.8120 ca         1 AK7      -0.311500
     17 Br30         0.1970    -0.0120     3.0890 br         1 AK7      -0.097100
     18 N5           3.8780     0.0000     1.2820 nb         1 AK7      -0.708000
     19 N3           2.3230     0.0010    -0.4180 nb         1 AK7      -0.696000
     20 N13          8.1920     0.8310     6.4940 nd         1 AK7      -0.550000
     21 S11          7.1970    -1.4170     6.1990 ss         1 AK7      -0.319300
     22 N17         11.9910    -0.4420     7.5940 ns         1 AK7      -0.048100
     23 C19         13.0360     0.4680     7.7950 ca         1 AK7      -0.081400
     24 C21         15.3650     1.0200     7.6550 ca         1 AK7      -0.193300
     25 C25         16.7760     0.6450     7.2820 c3         1 AK7       0.640200
     26 F26         17.6350     1.7080     7.5800 f          1 AK7      -0.208300
     27 F27         17.1650    -0.4880     8.0060 f          1 AK7      -0.208300
     28 F28         16.8380     0.3660     5.9120 f          1 AK7      -0.208300
     29 HN29        -0.4690    -0.8660    -0.1790 hn         1 AK7       0.284800
     30 HN2A        -0.4690     0.8670    -0.1720 hn         1 AK7       0.284800
     31 H23         13.6070     3.5840     8.9770 ha         1 AK7       0.113000
     32 H22         15.9120     2.9630     8.3650 ha         1 AK7       0.121000
     33 H20         14.5410    -0.8490     7.0160 ha         1 AK7       0.114000
     34 H14          6.5660     2.0960     6.0230 h4         1 AK7       0.006100
     35 H9           4.2650    -0.8840     5.8850 hc         1 AK7       0.025200
     36 H9A          4.2600     0.8850     5.8840 hc         1 AK7       0.025200
     37 H8           5.1500     0.8870     3.5760 h1         1 AK7       0.033200
     38 H8A          5.1550    -0.8820     3.5770 h1         1 AK7       0.033200
     39 H4           4.3720     0.0030    -0.7310 h5         1 AK7      -0.002900
     40 HN17        12.1780    -1.4250     7.6070 hn         1 AK7       0.161500
     41 N7           3.2570    -0.0030     3.5590 nu         1 AK7      -0.497900
     42 N15          9.7880    -0.8760     6.9560 ns         1 AK7      -0.083400
     43 H24         11.7630     1.9880     8.6170 ha         1 AK7       0.153000
     44 HN7          2.5350    -0.0190     4.2520 hn         1 AK7       0.306800
     45 HN15         9.9650    -1.8590     7.0140 hn         1 AK7       0.166500
@<TRIPOS>BOND
     1     1    15 1   
     2     1    29 1   
     3     1    30 1   
     4     2     3 ar  
     5     2    23 ar  
     6     2    43 1   
     7     3     4 ar  
     8     3    31 1   
     9     4    24 ar  
    10     4    32 1   
    11     5     6 2   
    12     5    22 1   
    13     5    42 1   
    14     7    23 ar  
    15     7    24 ar  
    16     7    33 1   
    17     8    20 2   
    18     8    21 1   
    19     8    42 1   
    20     9    10 2   
    21     9    20 1   
    22     9    34 1   
    23    10    11 1   
    24    10    21 1   
    25    11    12 1   
    26    11    35 1   
    27    11    36 1   
    28    12    37 1   
    29    12    38 1   
    30    12    41 1   
    31    13    18 ar  
    32    13    19 ar  
    33    13    39 1   
    34    14    16 ar  
    35    14    18 ar  
    36    14    41 1   
    37    15    16 ar  
    38    15    19 ar  
    39    16    17 1   
    40    22    23 1   
    41    22    40 1   
    42    24    25 1   
    43    25    26 1   
    44    25    27 1   
    45    25    28 1   
    46    41    44 1   
    47    42    45 1   
@<TRIPOS>SUBSTRUCTURE
     1 AK7         1 TEMP              0 ****  ****    0 ROOT
