@<TRIPOS>MOLECULE
molecule
   57    60     1     0     0
SMALL
bcc


@<TRIPOS>ATOM
      1 N1           0.0000     0.0000     0.0000 nb         1 AK8      -0.776000
      2 N3          -4.1920     0.0000    -0.0610 nb         1 AK8      -0.761000
      3 C4           1.4130     0.0010     2.3040 ca         1 AK8       0.500200
      4 C5          -2.1600     0.0000     1.1450 cp         1 AK8      -0.294800
      5 C6          -2.8710     0.0010     2.3470 ca         1 AK8      -0.041000
      6 C7          -4.2550     0.0010     2.2910 ca         1 AK8      -0.303300
      7 C8          -4.8860     0.0010     1.0610 ca         1 AK8       0.475200
      8 C10          3.4630    -0.0010    -1.2310 c3         1 AK8       0.238100
      9 C13         -3.8890    -1.4620    -4.1100 ca         1 AK8      -0.126000
     10 C15         -4.1550     0.9270    -4.1620 ca         1 AK8      -0.158000
     11 C17         -3.1650     2.3880    -2.3890 c3         1 AK8      -0.048800
     12 C20         -8.3210    -3.0770    -6.2090 ca         1 AK8      -0.098000
     13 C21         -9.2440    -4.0930    -6.3460 ca         1 AK8      -0.116000
     14 C22         -9.5180    -4.6170    -7.5980 ca         1 AK8      -0.102000
     15 C24         -7.9420    -3.1060    -8.5810 ca         1 AK8      -0.119000
     16 C1           1.3240     0.0000     0.0000 ca         1 AK8       0.945900
     17 N2           2.0200     0.0000     1.1280 nb         1 AK8      -0.804000
     18 C3           0.0310     0.0010     2.3520 ca         1 AK8      -0.445600
     19 C2          -0.6780     0.0010     1.1470 cp         1 AK8       0.569800
     20 C9          -2.8700    -0.0000    -0.0620 ca         1 AK8       0.690600
     21 O1          -2.1970    -0.0020    -1.2390 os         1 AK8      -0.312400
     22 C11         -2.9200    -0.1070    -2.3860 ca         1 AK8       0.087100
     23 C16         -3.4210     1.0330    -2.9970 ca         1 AK8      -0.057300
     24 C12         -3.1560    -1.3550    -2.9450 ca         1 AK8      -0.105000
     25 C14         -4.3900    -0.3210    -4.7220 ca         1 AK8       0.069600
     26 N5          -5.1350    -0.4300    -5.9050 ns         1 AK8      -0.487100
     27 C18         -5.9520    -1.4850    -6.0930 c          1 AK8       0.783100
     28 O2          -5.9870    -2.3810    -5.2710 o          1 AK8      -0.632100
     29 N6          -6.7300    -1.5480    -7.1910 ns         1 AK8      -0.491100
     30 C19         -7.6670    -2.5790    -7.3280 ca         1 AK8       0.071600
     31 C23         -8.8660    -4.1240    -8.7130 ca         1 AK8      -0.163300
     32 C25         -9.1660    -4.6980   -10.0740 c3         1 AK8       0.675200
     33 F2         -10.1260    -5.7080    -9.9530 f          1 AK8      -0.223967
     34 F3          -9.6540    -3.6880   -10.9090 f          1 AK8      -0.223967
     35 F1          -7.9950    -5.2320   -10.6230 f          1 AK8      -0.223967
     36 H4           1.9930     0.0010     3.2190 h4         1 AK8       0.026100
     37 H6          -2.3530     0.0010     3.2980 ha         1 AK8       0.147000
     38 H7          -4.8380     0.0010     3.2040 ha         1 AK8       0.142000
     39 H8          -5.9680     0.0010     1.0180 h4         1 AK8       0.026100
     40 H10          3.8320     0.8830    -0.7260 h1         1 AK8       0.040033
     41 H10A         3.8280    -0.8860    -0.7230 h1         1 AK8       0.040033
     42 H10B         3.8110    -0.0040    -2.2570 h1         1 AK8       0.040033
     43 H13         -4.0730    -2.4370    -4.5460 ha         1 AK8       0.171000
     44 H15         -4.5450     1.8180    -4.6390 ha         1 AK8       0.132000
     45 H17         -2.1310     2.4540    -2.0750 hc         1 AK8       0.049367
     46 H17A        -3.3690     3.1580    -3.1240 hc         1 AK8       0.049367
     47 H17B        -3.8120     2.5280    -1.5310 hc         1 AK8       0.049367
     48 H20         -8.1080    -2.6670    -5.2290 ha         1 AK8       0.170000
     49 H21         -9.7560    -4.4820    -5.4740 ha         1 AK8       0.144000
     50 H22        -10.2430    -5.4150    -7.7030 ha         1 AK8       0.150000
     51 H24         -7.4320    -2.7200    -9.4560 ha         1 AK8       0.142000
     52 HN4          1.4840    -0.0010    -2.0680 hn         1 AK8       0.458800
     53 H3          -0.4910     0.0020     3.3020 ha         1 AK8       0.140000
     54 H12         -2.7650    -2.2450    -2.4670 ha         1 AK8       0.147000
     55 HN5         -5.0650     0.2800    -6.6070 hn         1 AK8       0.319500
     56 HN6         -6.6390    -0.8570    -7.9090 hn         1 AK8       0.321500
     57 N4           1.9970    -0.0010    -1.2090 nu         1 AK8      -0.900900
@<TRIPOS>BOND
     1     1    16 ar
     2     1    19 ar
     3     2     7 ar
     4     2    20 ar
     5     3    17 ar
     6     3    18 ar
     7     4     5 ar
     8     4    19 1
     9     4    20 ar
    10     5     6 ar
    11     6     7 ar
    12     8    57 1
    13     9    24 ar
    14     9    25 ar
    15    10    23 ar
    16    10    25 ar
    17    11    23 1
    18    12    13 ar
    19    12    30 ar
    20    13    14 ar
    21    14    31 ar
    22    15    30 ar
    23    15    31 ar
    24    57    16 1
    25    16    17 ar
    26    18    19 ar
    27    20    21 1
    28    21    22 1
    29    22    23 ar
    30    22    24 ar
    31    25    26 1
    32    26    27 1
    33    27    28 2
    34    27    29 1
    35    29    30 1
    36    31    32 1
    37    32    33 1
    38    32    34 1
    39    32    35 1
    40     3    36 1
    41     5    37 1
    42     6    38 1
    43     7    39 1
    44     8    40 1
    45     8    41 1
    46     8    42 1
    47     9    43 1
    48    10    44 1
    49    11    45 1
    50    11    46 1
    51    11    47 1
    52    12    48 1
    53    13    49 1
    54    14    50 1
    55    15    51 1
    56    57    52 1
    57    18    53 1
    58    24    54 1
    59    26    55 1
    60    29    56 1
@<TRIPOS>SUBSTRUCTURE
     1 AK8         1 TEMP              0 ****  ****    0 ROOT
