@<TRIPOS>MOLECULE
AK8
   57    60     1     0     0
SMALL
bcc


@<TRIPOS>ATOM
      1 N1           0.0000     0.0000     0.0000 nb         1 AK8      -0.673000
      2 N3          -4.1920     0.0000    -0.0610 nb         1 AK8      -0.656000
      3 C4           1.4130     0.0010     2.3040 ca         1 AK8       0.495200
      4 C5          -2.1600     0.0000     1.1450 cp         1 AK8      -0.309800
      5 C6          -2.8710     0.0010     2.3470 ca         1 AK8      -0.018000
      6 C7          -4.2550     0.0010     2.2910 ca         1 AK8      -0.276300
      7 C8          -4.8860     0.0010     1.0610 ca         1 AK8       0.460200
      8 C10          3.4630    -0.0010    -1.2310 c3         1 AK8       0.202100
      9 C13         -3.8890    -1.4620    -4.1100 ca         1 AK8      -0.099000
     10 C15         -4.1550     0.9270    -4.1620 ca         1 AK8      -0.126000
     11 C17         -3.1650     2.3880    -2.3890 c3         1 AK8       0.058200
     12 C20         -8.3210    -3.0770    -6.2090 ca         1 AK8      -0.068000
     13 C21         -9.2440    -4.0930    -6.3460 ca         1 AK8      -0.086000
     14 C22         -9.5180    -4.6170    -7.5980 ca         1 AK8      -0.064000
     15 C24         -7.9420    -3.1060    -8.5810 ca         1 AK8      -0.079000
     16 C1           1.3240     0.0000     0.0000 ca         1 AK8       0.723900
     17 N2           2.0200     0.0000     1.1280 nb         1 AK8      -0.705000
     18 C3           0.0310     0.0010     2.3520 ca         1 AK8      -0.427600
     19 C2          -0.6780     0.0010     1.1470 cp         1 AK8       0.535800
     20 C9          -2.8700    -0.0000    -0.0620 ca         1 AK8       0.653600
     21 O1          -2.1970    -0.0020    -1.2390 os         1 AK8      -0.298400
     22 C11         -2.9200    -0.1070    -2.3860 ca         1 AK8       0.094100
     23 C16         -3.4210     1.0330    -2.9970 ca         1 AK8      -0.072300
     24 C12         -3.1560    -1.3550    -2.9450 ca         1 AK8      -0.084000
     25 C14         -4.3900    -0.3210    -4.7220 ca         1 AK8      -0.083400
     26 N5          -5.1350    -0.4300    -5.9050 ns         1 AK8      -0.045100
     27 C18         -5.9520    -1.4850    -6.0930 c          1 AK8       0.554100
     28 O2          -5.9870    -2.3810    -5.2710 o          1 AK8      -0.682100
     29 N6          -6.7300    -1.5480    -7.1910 ns         1 AK8      -0.054100
     30 C19         -7.6670    -2.5790    -7.3280 ca         1 AK8      -0.075400
     31 C23         -8.8660    -4.1240    -8.7130 ca         1 AK8      -0.193300
     32 C25         -9.1660    -4.6980   -10.0740 c3         1 AK8       0.640200
     33 F2         -10.1260    -5.7080    -9.9530 f          1 AK8      -0.208633
     34 F3          -9.6540    -3.6880   -10.9090 f          1 AK8      -0.208633
     35 F1          -7.9950    -5.2320   -10.6230 f          1 AK8      -0.208633
     36 H4           1.9930     0.0010     3.2190 h4         1 AK8      -0.021900
     37 H6          -2.3530     0.0010     3.2980 ha         1 AK8       0.117000
     38 H7          -4.8380     0.0010     3.2040 ha         1 AK8       0.117000
     39 H8          -5.9680     0.0010     1.0180 h4         1 AK8      -0.020900
     40 H10          3.8320     0.8830    -0.7260 h1         1 AK8       0.008367
     41 H10A         3.8280    -0.8860    -0.7230 h1         1 AK8       0.008367
     42 H10B         3.8110    -0.0040    -2.2570 h1         1 AK8       0.008367
     43 H13         -4.0730    -2.4370    -4.5460 ha         1 AK8       0.149000
     44 H15         -4.5450     1.8180    -4.6390 ha         1 AK8       0.108000
     45 H17         -2.1310     2.4540    -2.0750 hc         1 AK8       0.012367
     46 H17A        -3.3690     3.1580    -3.1240 hc         1 AK8       0.012367
     47 H17B        -3.8120     2.5280    -1.5310 hc         1 AK8       0.012367
     48 H20         -8.1080    -2.6670    -5.2290 ha         1 AK8       0.145000
     49 H21         -9.7560    -4.4820    -5.4740 ha         1 AK8       0.112000
     50 H22        -10.2430    -5.4150    -7.7030 ha         1 AK8       0.121000
     51 H24         -7.4320    -2.7200    -9.4560 ha         1 AK8       0.115000
     52 HN4          1.4840    -0.0010    -2.0680 hn         1 AK8       0.300800
     53 H3          -0.4910     0.0020     3.3020 ha         1 AK8       0.128000
     54 H12         -2.7650    -2.2450    -2.4670 ha         1 AK8       0.115000
     55 HN5         -5.0650     0.2800    -6.6070 hn         1 AK8       0.160500
     56 HN6         -6.6390    -0.8570    -7.9090 hn         1 AK8       0.163500
     57 N4           1.9970    -0.0010    -1.2090 nu         1 AK8      -0.485900
@<TRIPOS>BOND
     1     1    16 ar  
     2     1    19 ar  
     3     2     7 ar  
     4     2    20 ar  
     5     3    17 ar  
     6     3    18 ar  
     7     3    36 1   
     8     4     5 ar  
     9     4    19 1   
    10     4    20 ar  
    11     5     6 ar  
    12     5    37 1   
    13     6     7 ar  
    14     6    38 1   
    15     7    39 1   
    16     8    40 1   
    17     8    41 1   
    18     8    42 1   
    19     8    57 1   
    20     9    24 ar  
    21     9    25 ar  
    22     9    43 1   
    23    10    23 ar  
    24    10    25 ar  
    25    10    44 1   
    26    11    23 1   
    27    11    45 1   
    28    11    46 1   
    29    11    47 1   
    30    12    13 ar  
    31    12    30 ar  
    32    12    48 1   
    33    13    14 ar  
    34    13    49 1   
    35    14    31 ar  
    36    14    50 1   
    37    15    30 ar  
    38    15    31 ar  
    39    15    51 1   
    40    16    17 ar  
    41    16    57 1   
    42    18    19 ar  
    43    18    53 1   
    44    20    21 1   
    45    21    22 1   
    46    22    23 ar  
    47    22    24 ar  
    48    24    54 1   
    49    25    26 1   
    50    26    27 1   
    51    26    55 1   
    52    27    28 2   
    53    27    29 1   
    54    29    30 1   
    55    29    56 1   
    56    31    32 1   
    57    32    33 1   
    58    32    34 1   
    59    32    35 1   
    60    52    57 1   
@<TRIPOS>SUBSTRUCTURE
     1 AK8         1 TEMP              0 ****  ****    0 ROOT
