@<TRIPOS>MOLECULE
AKB
   14    13     1     0     0
SMALL
bcc


@<TRIPOS>ATOM
      1 C1          0.1990   -0.3300   -0.1810 c         1 AKB      0.909600
      2 O1         -0.5000    0.5040   -0.8140 o         1 AKB     -0.824300
      3 O2         -0.2240   -1.4090    0.3140 o         1 AKB     -0.824300
      4 C2          1.7450   -0.0280   -0.0310 c3        1 AKB     -0.082500
      5 C3          2.0690    0.0920    1.4400 c         1 AKB      0.593100
      6 C4          2.0870   -1.2040    2.1870 c3        1 AKB     -0.212100
      7 O3          2.2980    1.1710    2.0080 o         1 AKB     -0.604100
      8 N4          2.2220    1.0800   -0.8410 n3        1 AKB     -0.894800
      9 H21         2.2650   -0.9540   -0.4190 h1        1 AKB      0.061700
     10 H41         1.1310   -1.7520    1.9690 hc        1 AKB      0.062367
     11 H42         2.9440   -1.8260    1.8340 hc        1 AKB      0.062367
     12 H43         2.1870   -1.0340    3.2840 hc        1 AKB      0.062367
     13 HN41        1.5210    1.2780   -1.5380 hn        1 AKB      0.345300
     14 HN42        2.3030    1.9010   -0.2660 hn        1 AKB      0.345300
@<TRIPOS>BOND
     1    1    2 1
     2    1    3 1
     3    1    4 1
     4    4    5 1
     5    4    8 1
     6    4    9 1
     7    5    6 1
     8    5    7 2
     9    6   10 1
    10    6   11 1
    11    6   12 1
    12    8   13 1
    13    8   14 1
@<TRIPOS>SUBSTRUCTURE
     1 AKB         1 TEMP              0 ****  ****    0 ROOT
