@<TRIPOS>MOLECULE
molecule
   31    32     1     0     0
SMALL
bcc


@<TRIPOS>ATOM
      1 OAA          0.0000     0.0000     0.0000 o          1 AKD      -0.831800
      2 OAB          1.8350     0.0540    -1.0590 o          1 AKD      -0.831800
      3 CAD          3.3480    -0.1870     3.6720 ca         1 AKD      -0.075000
      4 CAE          4.0410     0.0000     2.4950 ca         1 AKD      -0.257000
      5 CAF          1.2710    -0.2550     2.4750 ca         1 AKD      -0.028000
      6 CAG          7.6000     0.4220    -1.2720 c3         1 AKD      -0.077400
      7 CAH          7.7880     1.9210    -1.0270 c3         1 AKD       0.152800
      8 CAI          6.1060     0.0900    -1.2530 c3         1 AKD      -0.088400
      9 CAJ          5.7610     2.0170     0.2970 c3         1 AKD       0.130800
     10 NAK          7.2040     2.2830     0.2710 n7         1 AKD      -0.813200
     11 CAM          1.2230     0.0000     0.0000 c          1 AKD       0.931200
     12 CAN          1.9660    -0.3150     3.6620 ca         1 AKD      -0.101900
     13 CAO          3.3580     0.0630     1.2860 ca         1 AKD       0.246600
     14 CAP          1.9590    -0.0650     1.2710 ca         1 AKD      -0.211600
     15 CAQ          5.5120     0.5210     0.0910 c3         1 AKD       0.237500
     16 HAD          3.8870    -0.2360     4.6110 ha         1 AKD       0.113000
     17 HAE          5.1200     0.0990     2.5120 ha         1 AKD       0.120000
     18 HAF          0.1960    -0.3850     2.4690 ha         1 AKD       0.158000
     19 HAGA         8.0160     0.1600    -2.2370 hc         1 AKD       0.040700
     20 HAH          8.8460     2.1550    -1.0230 h1         1 AKD       0.023200
     21 HAHA         7.2930     2.4790    -1.8120 h1         1 AKD       0.023200
     22 HAI          5.6080     0.6220    -2.0550 hc         1 AKD       0.051200
     23 HAIA         5.9720    -0.9780    -1.3820 hc         1 AKD       0.051200
     24 HAJ          5.3560     2.3200     1.2550 h1         1 AKD       0.044200
     25 HAJA         5.2790     2.5740    -0.4970 h1         1 AKD       0.044200
     26 HNAK         7.3460     3.2630     0.4180 hn         1 AKD       0.338800
     27 HAQ          5.9910    -0.0330     0.8890 h1         1 AKD       0.056700
     28 BrAC         1.0330    -0.5730     5.2870 br         1 AKD      -0.174100
     29 NAL          4.0540     0.2520     0.1010 nu         1 AKD      -0.814600
     30 HAG          8.1030    -0.1360    -0.4920 hc         1 AKD       0.040700
     31 HNAL         3.5750     0.1900    -0.7760 hn         1 AKD       0.501800
@<TRIPOS>BOND
     1     1    11 1
     2     2    11 1
     3    28    12 1
     4     3     4 ar
     5     3    12 ar
     6     4    13 ar
     7     5    12 ar
     8     5    14 ar
     9     6     7 1
    10     6     8 1
    11     7    10 1
    12     8    15 1
    13     9    10 1
    14     9    15 1
    15    29    13 1
    16    29    15 1
    17    11    14 1
    18    13    14 ar
    19     3    16 1
    20     4    17 1
    21     5    18 1
    22     6    30 1
    23     6    19 1
    24     7    20 1
    25     7    21 1
    26     8    22 1
    27     8    23 1
    28     9    24 1
    29     9    25 1
    30    10    26 1
    31    29    31 1
    32    15    27 1
@<TRIPOS>SUBSTRUCTURE
     1 AKD         1 TEMP              0 ****  ****    0 ROOT
