@<TRIPOS>MOLECULE
AKE
   58    60     1     0     0
SMALL
bcc


@<TRIPOS>ATOM
      1 O01          0.0000     0.0000     0.0000 o          1 AKE      -0.597100
      2 C02          1.2160     0.0000     0.0000 c          1 AKE       0.672300
      3 C03          1.9650     0.0000     1.2750 ca         1 AKE      -0.132600
      4 C04          1.3220    -0.2850     2.4750 ca         1 AKE      -0.056000
      5 C05          2.0380    -0.2810     3.6590 ca         1 AKE      -0.093000
      6 C06          3.3920     0.0050     3.6570 ca         1 AKE      -0.093000
      7 C07          4.0480     0.2910     2.4730 ca         1 AKE      -0.056000
      8 C08          3.3430     0.2890     1.2740 ca         1 AKE      -0.132600
      9 C09          4.0270     0.5880    -0.0020 c          1 AKE       0.672300
     10 O10          5.1420     1.0750    -0.0040 o          1 AKE      -0.597100
     11 C11          3.3430     0.2900    -1.2710 ca         1 AKE      -0.206600
     12 C12          4.0470     0.2870    -2.4780 ca         1 AKE       0.079100
     13 N13          5.4050     0.5670    -2.4930 nu         1 AKE      -0.433600
     14 C14          6.1280     0.6240    -3.7660 c3         1 AKE       0.158300
     15 C15          7.5990     0.9490    -3.5020 c3         1 AKE       0.133800
     16 N16          8.3250     1.0050    -4.7790 n7         1 AKE      -0.565200
     17 C17          9.7450     1.3160    -4.5650 c3         1 AKE       0.136800
     18 C18         10.4640     1.3650    -5.9140 c3         1 AKE       0.227400
     19 O19          9.9520     2.4520    -6.6870 oh         1 AKE      -0.577300
     20 C20          3.3770     0.0000    -3.6720 ca         1 AKE      -0.123000
     21 C21          2.0410    -0.2770    -3.6710 ca         1 AKE      -0.123000
     22 C22          1.3150    -0.2810    -2.4760 ca         1 AKE       0.079100
     23 N23         -0.0420    -0.5660    -2.4900 nu         1 AKE      -0.433600
     24 C24         -0.7470    -0.7190    -3.7640 c3         1 AKE       0.158300
     25 C25         -2.2230    -1.0270    -3.4990 c3         1 AKE       0.133800
     26 N26         -2.9290    -1.1800    -4.7770 n7         1 AKE      -0.565200
     27 C27         -4.3510    -1.4760    -4.5610 c3         1 AKE       0.136800
     28 C28         -5.0520    -1.6280    -5.9120 c3         1 AKE       0.227400
     29 O29         -4.5280    -2.7680    -6.5960 oh         1 AKE      -0.577300
     30 C30          1.9610    -0.0060    -1.2710 ca         1 AKE      -0.206600
     31 H1           0.2620    -0.5100     2.4820 ha         1 AKE       0.122000
     32 H2           1.5360    -0.5030     4.5930 ha         1 AKE       0.105000
     33 H3           3.9420     0.0060     4.5900 ha         1 AKE       0.105000
     34 H4           5.1080     0.5140     2.4790 ha         1 AKE       0.122000
     35 H5           5.8980     0.6980    -1.6320 hn         1 AKE       0.345800
     36 H6           6.0540    -0.3340    -4.2670 h1         1 AKE       0.017950
     37 H7           5.6950     1.3940    -4.3940 h1         1 AKE       0.017950
     38 H8           7.6740     1.9070    -3.0020 h1         1 AKE       0.012700
     39 H9           8.0320     0.1790    -2.8750 h1         1 AKE       0.012700
     40 H10          8.2430     0.1250    -5.2480 hn         1 AKE       0.249800
     41 H12         10.1930     0.5490    -3.9450 h1         1 AKE       0.013450
     42 H13          9.8340     2.2760    -4.0730 h1         1 AKE       0.013450
     43 H14         10.2990     0.4360    -6.4460 h1         1 AKE      -0.016300
     44 H15         11.5260     1.5050    -5.7530 h1         1 AKE      -0.016300
     45 H16         10.5010     2.5880    -7.4410 ho         1 AKE       0.384000
     46 H17          3.9240    -0.0010    -4.6070 ha         1 AKE       0.116500
     47 H18          1.5380    -0.4970    -4.6060 ha         1 AKE       0.116500
     48 H19         -0.5390    -0.6760    -1.6280 hn         1 AKE       0.345800
     49 H20         -0.3050    -1.5330    -4.3270 h1         1 AKE       0.017950
     50 H21         -0.6670     0.1990    -4.3340 h1         1 AKE       0.017950
     51 H22         -2.6660    -0.2130    -2.9370 h1         1 AKE       0.012700
     52 H23         -2.3040    -1.9450    -2.9290 h1         1 AKE       0.012700
     53 H24         -2.8410    -0.3370    -5.3100 hn         1 AKE       0.249800
     54 H26         -4.4470    -2.3970    -3.9990 h1         1 AKE       0.013450
     55 H27         -4.8090    -0.6660    -4.0060 h1         1 AKE       0.013450
     56 H28         -6.1160    -1.7600    -5.7550 h1         1 AKE      -0.016300
     57 H29         -4.8820    -0.7400    -6.5090 h1         1 AKE      -0.016300
     58 H30         -5.0660    -2.9600    -7.3460 ho         1 AKE       0.384000
@<TRIPOS>BOND
     1     1     2 2   
     2     2     3 1   
     3     2    30 1   
     4     3     4 ar  
     5     3     8 ar  
     6     4     5 ar  
     7     4    31 1   
     8     5     6 ar  
     9     5    32 1   
    10     6     7 ar  
    11     6    33 1   
    12     7     8 ar  
    13     7    34 1   
    14     8     9 1   
    15     9    10 2   
    16     9    11 1   
    17    11    12 ar  
    18    11    30 ar  
    19    12    13 1   
    20    12    20 ar  
    21    13    14 1   
    22    13    35 1   
    23    14    15 1   
    24    14    36 1   
    25    14    37 1   
    26    15    16 1   
    27    15    38 1   
    28    15    39 1   
    29    16    17 1   
    30    16    40 1   
    31    17    18 1   
    32    17    41 1   
    33    17    42 1   
    34    18    19 1   
    35    18    43 1   
    36    18    44 1   
    37    19    45 1   
    38    20    21 ar  
    39    20    46 1   
    40    21    22 ar  
    41    21    47 1   
    42    22    23 1   
    43    22    30 ar  
    44    23    24 1   
    45    23    48 1   
    46    24    25 1   
    47    24    49 1   
    48    24    50 1   
    49    25    26 1   
    50    25    51 1   
    51    25    52 1   
    52    26    27 1   
    53    26    53 1   
    54    27    28 1   
    55    27    54 1   
    56    27    55 1   
    57    28    29 1   
    58    28    56 1   
    59    28    57 1   
    60    29    58 1   
@<TRIPOS>SUBSTRUCTURE
     1 AKE         1 TEMP              0 ****  ****    0 ROOT
