@<TRIPOS>MOLECULE
AKG
   14    13     1     0     0
SMALL
bcc


@<TRIPOS>ATOM
      1 C1          0.0180    0.0280    0.0090 c         1 AKG      0.842600
      2 O1          0.8450   -0.7960    0.4920 o         1 AKG     -0.845300
      3 O2         -0.2320    1.1570    0.5230 o         1 AKG     -0.845300
      4 C2         -0.7270   -0.3580   -1.2750 c         1 AKG      0.476100
      5 O5         -1.7810   -1.0110   -1.2430 o         1 AKG     -0.619100
      6 C3         -0.0930    0.1020   -2.5590 c3        1 AKG     -0.166400
      7 C4         -0.9700   -0.0510   -3.7780 c3        1 AKG     -0.173400
      8 C5         -0.2370    0.2340   -5.0920 c         1 AKG      0.902600
      9 O3          0.8800   -0.3210   -5.3240 o         1 AKG     -0.875800
     10 O4         -0.7980    0.9980   -5.9380 o         1 AKG     -0.875800
     11 H31         0.8530   -0.4850   -2.7080 hc        1 AKG      0.065700
     12 H32         0.2000    1.1780   -2.4300 hc        1 AKG      0.065700
     13 H41        -1.3590   -1.1020   -3.8220 hc        1 AKG      0.024200
     14 H42        -1.8550    0.6300   -3.6960 hc        1 AKG      0.024200
@<TRIPOS>BOND
     1    1    2 1   
     2    1    3 1   
     3    1    4 1   
     4    4    5 2   
     5    4    6 1   
     6    6    7 1   
     7    6   11 1   
     8    6   12 1   
     9    7    8 1   
    10    7   13 1   
    11    7   14 1   
    12    8    9 1   
    13    8   10 1   
@<TRIPOS>SUBSTRUCTURE
     1 AKG         1 TEMP              0 ****  ****    0 ROOT
