@<TRIPOS>MOLECULE
molecule
   14    13     1     0     0
SMALL
bcc


@<TRIPOS>ATOM
      1 C1           0.0000     0.0000     0.0000 c          1 AKG       0.801600
      2 O1           1.2130     0.0000     0.0000 o          1 AKG      -0.842300
      3 O2          -0.6730     0.0000     1.1650 o          1 AKG      -0.842300
      4 C2          -0.7460     0.0080    -1.2910 c          1 AKG       0.467100
      5 O5          -1.9540     0.0080    -1.2910 o          1 AKG      -0.572100
      6 C3           0.0080     0.0130    -2.5960 c3         1 AKG      -0.162400
      7 C4          -0.9860     0.0210    -3.7600 c3         1 AKG      -0.173400
      8 C5          -0.2330     0.0260    -5.0640 c          1 AKG       0.889600
      9 O3           0.9760     0.0260    -5.0640 o          1 AKG      -0.878800
     10 O4          -0.9040     0.0330    -6.2270 o          1 AKG      -0.878800
     11 H31          0.6320     0.8970    -2.6490 hc         1 AKG       0.065700
     12 H32          0.6290    -0.8720    -2.6580 hc         1 AKG       0.065700
     13 H41         -1.6070     0.9060    -3.6980 hc         1 AKG       0.031700
     14 H42         -1.6100    -0.8630    -3.7070 hc         1 AKG       0.031700
@<TRIPOS>BOND
     1     1     2 1
     2     1     3 1
     3     1     4 1
     4     4     5 2
     5     4     6 1
     6     6     7 1
     7     6    11 1
     8     6    12 1
     9     7     8 1
    10     7    13 1
    11     7    14 1
    12     8     9 1
    13     8    10 1
@<TRIPOS>SUBSTRUCTURE
     1 AKG         1 TEMP              0 ****  ****    0 ROOT
