@<TRIPOS>MOLECULE
AKH
   17    18     1     0     0
SMALL
bcc


@<TRIPOS>ATOM
      1 C6         -0.0330    0.0210    0.0520 ca        1 AKH     -0.121000
      2 C5          1.3590    0.0240    0.0540 ca        1 AKH     -0.137800
      3 C1          2.3770    0.0380    1.0880 cc        1 AKH     -0.206200
      4 C2          3.5890    0.0340    0.4400 cd        1 AKH     -0.042900
      5 C7         -0.6850    0.0060   -1.1770 ca        1 AKH     -0.170000
      6 C8          0.0280   -0.0050   -2.3850 ca        1 AKH     -0.106000
      7 C9          1.4250   -0.0020   -2.4340 ca        1 AKH     -0.104600
      8 C10         2.1340   -0.0150   -3.7820 c         1 AKH      0.914200
      9 O11         1.4000   -0.0200   -4.8120 o         1 AKH     -0.821800
     10 C4          2.0660    0.0130   -1.1930 ca        1 AKH      0.088100
     11 O12         3.3930   -0.0200   -3.8060 o         1 AKH     -0.821800
     12 O3          3.4430    0.0190   -0.9500 os        1 AKH     -0.150200
     13 H6         -0.5950    0.0290    0.9940 ha        1 AKH      0.109000
     14 H7A        -1.7840    0.0030   -1.2050 ha        1 AKH      0.106000
     15 H1          2.1920    0.0490    2.1560 ha        1 AKH      0.139000
     16 H2          4.6240    0.0400    0.7670 h4        1 AKH      0.169000
     17 H4         -0.5090   -0.0160   -3.3490 ha        1 AKH      0.158000
@<TRIPOS>BOND
     1    1    2 ar
     2    1    5 ar
     3    1   13 1
     4    2    3 1
     5    2   10 ar
     6    3    4 2
     7    3   15 1
     8    4   12 1
     9    4   16 1
    10    5    6 ar
    11    5   14 1
    12    6    7 ar
    13    6   17 1
    14    7    8 1
    15    7   10 ar
    16    8    9 1
    17    8   11 1
    18   10   12 1
@<TRIPOS>SUBSTRUCTURE
     1 AKH         1 TEMP              0 ****  ****    0 ROOT
