@<TRIPOS>MOLECULE
AKI
   67    72     1     0     0
SMALL
bcc


@<TRIPOS>ATOM
      1 N1         -0.2540   -0.0110    0.0030 nb        1 AKI     -0.712000
      2 C2          1.1060    0.0010    0.0650 ca        1 AKI      0.682900
      3 N3          1.9270   -0.0150    1.1430 nb        1 AKI     -0.779000
      4 C4          1.3380   -0.0610    2.3910 ca        1 AKI      0.742200
      5 C5         -0.0910   -0.0640    2.4790 ca        1 AKI     -0.395400
      6 C6         -0.8120   -0.0430    1.2380 ca        1 AKI      0.617600
      7 CAA        -0.7320    1.0910    7.0750 ca        1 AKI     -0.135000
      8 CAB        -1.0230    1.0860    5.7120 ca        1 AKI     -0.118000
      9 CAC        -0.8030   -0.0690    4.9480 ca        1 AKI     -0.045800
     10 CAD        -0.2880   -1.2170    5.5690 ca        1 AKI     -0.118000
     11 CAE        -0.0010   -1.2060    6.9330 ca        1 AKI     -0.135000
     12 CAF        -0.2220   -0.0540    7.6870 ca        1 AKI     -0.125000
     13 CAG        -1.0900   -0.0740    3.5260 cc        1 AKI     -0.033400
     14 CAH        -2.3260   -0.0690    2.8990 cd        1 AKI      0.095900
     15 OAI        -2.1830   -0.0490    1.4850 os        1 AKI     -0.298400
     16 CAL        -3.6950   -0.0890    3.3590 ca        1 AKI     -0.043800
     17 CAM        -4.7420    0.2300    2.4780 ca        1 AKI     -0.102000
     18 CAN        -6.0620    0.2090    2.9230 ca        1 AKI     -0.135000
     19 CAO        -6.3520   -0.1290    4.2450 ca        1 AKI     -0.116000
     20 CAP        -5.3170   -0.4490    5.1230 ca        1 AKI     -0.135000
     21 CAQ        -3.9950   -0.4310    4.6860 ca        1 AKI     -0.102000
     22 CAV         3.5270    0.0390    3.5230 c3        1 AKI      0.215800
     23 CAW         4.1510   -0.0930    4.9170 c3        1 AKI     -0.046100
     24 CAX         5.6270    0.0720    4.8350 ca        1 AKI     -0.106300
     25 CAY         6.2470    1.2230    5.3270 ca        1 AKI     -0.101000
     26 CAZ         7.6280    1.3800    5.2670 ca        1 AKI     -0.155500
     27 CBA         8.4310    0.3660    4.7050 ca        1 AKI      0.065600
     28 CBB         7.8010   -0.8020    4.2120 ca        1 AKI     -0.155500
     29 CBC         6.4210   -0.9360    4.2770 ca        1 AKI     -0.101000
     30 NBD         9.8250    0.5000    4.5530 n         1 AKI     -0.464100
     31 CBE        10.6390    1.1970    5.4770 c         1 AKI      0.768100
     32 NBF        12.0350    1.0390    5.3280 n         1 AKI     -0.461100
     33 CBG        12.9730    1.8550    5.9970 ca        1 AKI      0.057600
     34 CBH        12.7610    2.3300    7.3080 ca        1 AKI     -0.155500
     35 CBI        13.7520    3.0720    7.9460 ca        1 AKI     -0.109000
     36 CBJ        14.9600    3.3510    7.3100 ca        1 AKI     -0.149000
     37 CBK        15.1770    2.8830    6.0150 ca        1 AKI     -0.109000
     38 CBL        14.2000    2.1470    5.3550 ca        1 AKI     -0.155500
     39 OBM        10.1470    1.9100    6.3780 o         1 AKI     -0.606100
     40 NBN         2.0980   -0.1510    3.5370 nh        1 AKI     -0.858900
     41 H2          1.6240    0.0320   -0.9190 h5        1 AKI      0.056100
     42 HAA        -0.9070    2.0010    7.6680 ha        1 AKI      0.137500
     43 HAB        -1.4290    1.9890    5.2310 ha        1 AKI      0.145500
     44 HAD        -0.1160   -2.1270    4.9740 ha        1 AKI      0.145500
     45 HAE         0.3970   -2.1120    7.4140 ha        1 AKI      0.137500
     46 HAF         0.0050   -0.0490    8.7640 ha        1 AKI      0.136000
     47 HAM        -4.5130    0.4920    1.4330 ha        1 AKI      0.148500
     48 HAN        -6.8760    0.4600    2.2270 ha        1 AKI      0.135500
     49 HAO        -7.3950   -0.1440    4.5930 ha        1 AKI      0.134000
     50 HAP        -5.5430   -0.7180    6.1650 ha        1 AKI      0.135500
     51 HAQ        -3.1790   -0.6870    5.3820 ha        1 AKI      0.148500
     52 HAV         3.9860   -0.7340    2.8400 h1        1 AKI      0.059700
     53 HAVA        3.7800    1.0550    3.1020 h1        1 AKI      0.059700
     54 HAW         3.9130   -1.1030    5.3480 hc        1 AKI      0.054200
     55 HAWA        3.7160    0.6780    5.6060 hc        1 AKI      0.054200
     56 HAY         5.6380    2.0260    5.7730 ha        1 AKI      0.136000
     57 HAZ         8.0870    2.2970    5.6710 ha        1 AKI      0.150500
     58 HBB         8.3960   -1.6150    3.7680 ha        1 AKI      0.150500
     59 HBC         5.9460   -1.8500    3.8860 ha        1 AKI      0.136000
     60 HNBD       10.2510   -0.2270    4.0190 hn        1 AKI      0.308500
     61 HNBF       12.3670    0.6610    4.4670 hn        1 AKI      0.306500
     62 HBH        11.8110    2.1300    7.8290 ha        1 AKI      0.148000
     63 HBI        13.5710    3.4400    8.9680 ha        1 AKI      0.134000
     64 HBJ        15.7350    3.9360    7.8240 ha        1 AKI      0.134000
     65 HBK        16.1280    3.0990    5.5050 ha        1 AKI      0.134000
     66 HBL        14.3950    1.7920    4.3320 ha        1 AKI      0.148000
     67 HNBN        1.6170   -0.0250    4.4000 hn        1 AKI      0.444800
@<TRIPOS>BOND
     1    1    2 ar
     2    1    6 ar
     3    2    3 ar
     4    2   41 1
     5    3    4 ar
     6    4    5 ar
     7    4   40 1
     8    5    6 ar
     9    5   13 1
    10    6   15 1
    11    7    8 ar
    12    7   12 ar
    13    7   42 1
    14    8    9 ar
    15    8   43 1
    16    9   10 ar
    17    9   13 1
    18   10   11 ar
    19   10   44 1
    20   11   12 ar
    21   11   45 1
    22   12   46 1
    23   13   14 2
    24   14   15 1
    25   14   16 1
    26   16   17 ar
    27   16   21 ar
    28   17   18 ar
    29   17   47 1
    30   18   19 ar
    31   18   48 1
    32   19   20 ar
    33   19   49 1
    34   20   21 ar
    35   20   50 1
    36   21   51 1
    37   22   23 1
    38   22   40 1
    39   22   52 1
    40   22   53 1
    41   23   24 1
    42   23   54 1
    43   23   55 1
    44   24   25 ar
    45   24   29 ar
    46   25   26 ar
    47   25   56 1
    48   26   27 ar
    49   26   57 1
    50   27   28 ar
    51   27   30 1
    52   28   29 ar
    53   28   58 1
    54   29   59 1
    55   30   31 1
    56   30   60 1
    57   31   32 1
    58   31   39 2
    59   32   33 1
    60   32   61 1
    61   33   34 ar
    62   33   38 ar
    63   34   35 ar
    64   34   62 1
    65   35   36 ar
    66   35   63 1
    67   36   37 ar
    68   36   64 1
    69   37   38 ar
    70   37   65 1
    71   38   66 1
    72   40   67 1
@<TRIPOS>SUBSTRUCTURE
     1 AKI         1 TEMP              0 ****  ****    0 ROOT
