@<TRIPOS>MOLECULE
molecule
   42    43     1     0     0
SMALL
bcc


@<TRIPOS>ATOM
      1 C1           0.0000     0.0000     0.0000 c3         1 AKJ       0.578700
      2 O2          -1.3280     3.4900    -1.8760 os         1 AKJ      -0.304900
      3 C3          -0.5430     3.5470    -0.7660 ca         1 AKJ       0.113100
      4 C4          -0.1780     4.7690    -0.2410 ca         1 AKJ      -0.139000
      5 C5           0.6300     4.8230     0.9010 ca         1 AKJ      -0.168600
      6 C6           1.0630     3.6360     1.5040 ca         1 AKJ      -0.090000
      7 C7           0.6950     2.4210     0.9720 ca         1 AKJ      -0.182000
      8 C8          -1.6410     4.7300    -2.5130 c3         1 AKJ       0.102100
      9 C10         -3.0470     5.7330    -4.1690 c3         1 AKJ       0.129400
     10 C11         -2.1370     4.4960    -3.9650 c3         1 AKJ      -0.111400
     11 C14          2.1500     7.6370     3.0710 c3         1 AKJ      -0.067700
     12 C16          3.1330     7.6960     4.2420 c3         1 AKJ      -0.090100
     13 F1           1.4000     0.0000     0.0000 f          1 AKJ      -0.241800
     14 F2          -0.4650     0.0000     1.3190 f          1 AKJ      -0.241800
     15 O1          -0.4760     1.1670    -0.6730 os         1 AKJ      -0.327900
     16 C2          -0.1120     2.3690    -0.1580 ca         1 AKJ       0.124100
     17 O3          -3.6740     5.9500    -2.8950 os         1 AKJ      -0.412600
     18 C9          -2.8680     5.3940    -1.8510 c3         1 AKJ       0.102400
     19 O4           0.6450     7.1490     0.9420 o          1 AKJ      -0.529100
     20 C13          1.8920     6.1770     2.6950 c3         1 AKJ      -0.171400
     21 C15          0.8320     8.3000     3.4780 c3         1 AKJ      -0.090100
     22 H1          -0.3610    -0.8840    -0.5110 h3         1 AKJ       0.125700
     23 H2          -0.5160     5.6850    -0.7110 ha         1 AKJ       0.166000
     24 H3           1.6910     3.6730     2.3860 ha         1 AKJ       0.141000
     25 H4           1.0300     1.5030     1.4400 ha         1 AKJ       0.161000
     26 H5          -0.7910     5.4020    -2.5030 h1         1 AKJ       0.064700
     27 H6          -2.4510     6.5950    -4.4450 h1         1 AKJ       0.052200
     28 H7          -3.7950     5.5270    -4.9250 h1         1 AKJ       0.052200
     29 H8          -2.7080     3.5780    -4.0360 hc         1 AKJ       0.070200
     30 H9          -1.3090     4.5040    -4.6640 hc         1 AKJ       0.070200
     31 H10          2.5600     8.1810     2.2280 hc         1 AKJ       0.063700
     32 H11          3.3410     8.7300     4.4880 hc         1 AKJ       0.036367
     33 H12          2.6990     7.2000     5.1030 hc         1 AKJ       0.036367
     34 H13          4.0540     7.1980     3.9650 hc         1 AKJ       0.036367
     35 H14         -2.5420     6.1810    -1.1820 h1         1 AKJ       0.059700
     36 H15         -3.4360     4.6510    -1.3060 h1         1 AKJ       0.059700
     37 H16          1.3910     5.6760     3.5140 hc         1 AKJ       0.066200
     38 H17          2.8350     5.6840     2.4920 hc         1 AKJ       0.066200
     39 H18          1.0170     9.0160     4.2690 hc         1 AKJ       0.036367
     40 H19          0.4050     8.8100     2.6220 hc         1 AKJ       0.036367
     41 H20          0.1410     7.5430     3.8290 hc         1 AKJ       0.036367
     42 C12          1.0220     6.1220     1.4650 c          1 AKJ       0.579700
@<TRIPOS>BOND
     1    12    11 1
     2    11    21 1
     3    11    20 1
     4    20    42 1
     5    19    42 2
     6    42     5 1
     7     5     4 ar
     8     5     6 ar
     9     4     3 ar
    10     6     7 ar
    11    10     8 1
    12    10     9 1
    13     8     2 1
    14     8    18 1
    15     3     2 1
    16     3    16 ar
    17     9    17 1
    18     7    16 ar
    19    18    17 1
    20    16    15 1
    21    15     1 1
    22    14     1 1
    23     1    13 1
    24     1    22 1
    25     4    23 1
    26     6    24 1
    27     7    25 1
    28     8    26 1
    29     9    27 1
    30     9    28 1
    31    10    29 1
    32    10    30 1
    33    11    31 1
    34    12    32 1
    35    12    33 1
    36    12    34 1
    37    18    35 1
    38    18    36 1
    39    20    37 1
    40    20    38 1
    41    21    39 1
    42    21    40 1
    43    21    41 1
@<TRIPOS>SUBSTRUCTURE
     1 AKJ         1 TEMP              0 ****  ****    0 ROOT
