@<TRIPOS>MOLECULE
molecule
   12    11     1     0     0
SMALL
bcc


@<TRIPOS>ATOM
      1 CA           0.0000     0.0000     0.0000 c3         1 AKK       0.042100
      2 CB           1.5070     0.0000     0.0000 c2         1 AKK      -0.220200
      3 CC           2.1670     0.0000     1.1430 c2         1 AKK      -0.015000
      4 ND           1.4710     0.0000     2.3460 nz         1 AKK      -0.786400
      5 HA1         -0.3610     0.2920    -0.9790 hc         1 AKK       0.099367
      6 HA2         -0.3610    -0.9940     0.2360 hc         1 AKK       0.099367
      7 HA3         -0.3610     0.7010     0.7420 hc         1 AKK       0.099367
      8 HND1         1.2260     0.9390     2.5900 hn         1 AKK       0.435467
      9 HB1          0.8950     0.8750     0.1850 ha         1 AKK       0.197000
     10 HC1          1.7030    -0.8750     1.5820 hx         1 AKK       0.179000
     11 HND2         0.6380    -0.5470     2.2500 hn         1 AKK       0.435467
     12 HD3          2.0470    -0.3920     3.0650 hn         1 AKK       0.435467
@<TRIPOS>BOND
     1     1     5 1
     2     1     6 1
     3     1     7 1
     4     2     1 1
     5     3     2 2
     6     4     3 1
     7     4     8 1
     8     2     9 1
     9     3    10 1
    10     4    11 1
    11    12     4 1
@<TRIPOS>SUBSTRUCTURE
     1 AKK         1 TEMP              0 ****  ****    0 ROOT
