@<TRIPOS>MOLECULE
AKK
   12    11     1     0     0
SMALL
bcc


@<TRIPOS>ATOM
      1 CA           0.0000     0.0000     0.0000 c3         1 AKK      -0.008900
      2 CB           1.5070     0.0000     0.0000 c2         1 AKK       0.070800
      3 CC           2.1670     0.0000     1.1430 c2         1 AKK      -0.440000
      4 ND           1.4710     0.0000     2.3460 nz         1 AKK       0.290600
      5 HA1         -0.3610    -0.0000    -1.0210 hc         1 AKK       0.041700
      6 HA2         -0.3610    -0.8840     0.5110 hc         1 AKK       0.041700
      7 HA3         -0.3610     0.8850     0.5110 hc         1 AKK       0.041700
      8 HND1         0.8950     0.8170     2.3990 hn         1 AKK       0.207133
      9 HB1          2.0480    -0.0000    -0.9380 ha         1 AKK       0.146000
     10 HC1          3.2500    -0.0000     1.1440 hx         1 AKK       0.195000
     11 HND2         0.8950    -0.8170     2.3990 hn         1 AKK       0.207133
     12 HD3          2.1200     0.0000     3.1070 hn         1 AKK       0.207133
@<TRIPOS>BOND
     1     1     2 1   
     2     1     5 1   
     3     1     6 1   
     4     1     7 1   
     5     2     3 2   
     6     2     9 1   
     7     3     4 1   
     8     3    10 1   
     9     4     8 1   
    10     4    11 1   
    11     4    12 1   
@<TRIPOS>SUBSTRUCTURE
     1 AKK         1 TEMP              0 ****  ****    0 ROOT
