@<TRIPOS>MOLECULE
AKM
   64    66     1     0     0
SMALL
bcc


@<TRIPOS>ATOM
      1 O2P          0.0000     0.0000     0.0000 o          1 AKM      -0.662000
      2 P            1.6100     0.0000     0.0000 p5         1 AKM       0.957800
      3 O1P          2.1040     0.0000     1.3960 o          1 AKM      -0.662000
      4 OPP          2.1470    -1.3140    -0.7590 os         1 AKM      -0.491800
      5 P2           2.2380    -2.8730    -0.3680 p5         1 AKM       0.932800
      6 O3P          3.4430    -3.0940     0.6770 o          1 AKM      -0.651500
      7 O1           2.5110    -3.7430    -1.6940 os         1 AKM      -0.462200
      8 C1           2.5400    -5.1770    -1.6950 c3         1 AKM       0.493900
      9 C2           3.4880    -5.6570    -2.7940 c3         1 AKM      -0.101400
     10 C3           3.5060    -7.1820    -2.8450 c3         1 AKM      -0.056800
     11 C3M          4.2680    -7.7420    -1.6410 c3         1 AKM      -0.014100
     12 N3           4.2370    -7.5890    -4.0680 nz         1 AKM       0.033400
     13 C4           2.1010    -7.7650    -2.9170 c3         1 AKM       0.345600
     14 O4A          1.6390    -7.6860    -4.2770 oh         1 AKM      -0.634800
     15 O4B          2.1650    -9.1590    -2.5620 oh         1 AKM      -0.634800
     16 C5           1.0880    -7.0800    -2.0150 c3         1 AKM       0.168100
     17 C6           1.1100    -7.6750    -0.6060 c3         1 AKM      -0.052100
     18 O5           1.2340    -5.6710    -1.9690 os         1 AKM      -0.368600
     19 O4P          0.9640    -3.3010     0.2500 o          1 AKM      -0.651500
     20 O5'          2.1460     1.3160    -0.7580 os         1 AKM      -0.509200
     21 C5'          1.9270     2.6400    -0.2680 c3         1 AKM       0.311400
     22 C4'          2.5650     3.6490    -1.2260 c3         1 AKM       0.159100
     23 C3'          2.3550     5.0960    -0.7120 c3         1 AKM       0.155100
     24 O3'          3.3840     5.4660     0.2070 oh         1 AKM      -0.579800
     25 C2'          2.4570     5.9220    -2.0180 c3         1 AKM      -0.109400
     26 C1'          2.1700     4.9000    -3.1340 c3         1 AKM       0.226500
     27 O4'          1.8860     3.6420    -2.5000 os         1 AKM      -0.353600
     28 N11          1.0140     5.3340    -3.9220 n          1 AKM       0.047000
     29 C21         -0.1990     5.4000    -3.3440 c          1 AKM       0.584500
     30 O21         -0.3220     5.0990    -2.1720 o          1 AKM      -0.655500
     31 N31         -1.2780     5.7940    -4.0440 ns         1 AKM      -0.132500
     32 C41         -1.1600     6.1320    -5.3450 c          1 AKM       0.631700
     33 O41         -2.1350     6.4900    -5.9780 o          1 AKM      -0.691500
     34 C51          0.1110     6.0660    -5.9650 cc         1 AKM      -0.317400
     35 C5A          0.2720     6.4370    -7.4170 c3         1 AKM       0.111100
     36 C61          1.1790     5.6720    -5.2380 cd         1 AKM      -0.073400
     37 H2           2.8770    -5.5440    -0.7330 h2         1 AKM       0.012700
     38 H3           4.4880    -5.2940    -2.5870 hc         1 AKM       0.045700
     39 H4           3.1510    -5.2710    -3.7490 hc         1 AKM       0.045700
     40 H5           3.6910    -7.5740    -0.7390 hc         1 AKM       0.042700
     41 H6           4.4260    -8.8050    -1.7760 hc         1 AKM       0.042700
     42 H7           5.2250    -7.2420    -1.5550 hc         1 AKM       0.042700
     43 H8           4.2230    -8.5870    -4.1480 hn         1 AKM       0.222800
     44 H9           5.1840    -7.2720    -4.0120 hn         1 AKM       0.222800
     45 H11          0.8310    -8.1630    -4.3630 ho         1 AKM       0.419500
     46 H12          1.6460    -9.6620    -3.1670 ho         1 AKM       0.419500
     47 H13          0.1090    -7.2810    -2.4330 h1         1 AKM       0.030700
     48 H14          0.0950    -7.7820    -0.2440 hc         1 AKM       0.030367
     49 H15          1.6620    -7.0180     0.0550 hc         1 AKM       0.030367
     50 H16          1.5880    -8.6470    -0.6320 hc         1 AKM       0.030367
     51 H18          2.3740     2.7410     0.7130 h1         1 AKM      -0.004800
     52 H19          0.8630     2.8290    -0.2010 h1         1 AKM      -0.004800
     53 H20          3.6210     3.4440    -1.3580 h1         1 AKM       0.023700
     54 H21          1.3730     5.2050    -0.2670 h1         1 AKM       0.042700
     55 H22          3.0240     6.0280     0.8740 ho         1 AKM       0.382000
     56 H23          3.4530     6.3320    -2.1280 hc         1 AKM       0.024700
     57 H24          1.7120     6.7090    -2.0260 hc         1 AKM       0.024700
     58 H25          3.0400     4.8000    -3.7710 h2         1 AKM       0.019700
     59 H26         -2.1730     5.8370    -3.5980 hn         1 AKM       0.203500
     60 H27         -0.0180     7.4710    -7.5600 hc         1 AKM       0.001700
     61 H28          1.3070     6.3090    -7.7100 hc         1 AKM       0.001700
     62 H29         -0.3570     5.7980    -8.0250 hc         1 AKM       0.001700
     63 H30          2.1590     5.6160    -5.6960 h4         1 AKM       0.128000
     64 H33          3.8000    -7.1790    -4.8700 hn         1 AKM       0.222800
@<TRIPOS>BOND
     1     1     2 1   
     2     2     3 1   
     3     2     4 1   
     4     2    20 1   
     5     4     5 1   
     6     5     6 1   
     7     5     7 1   
     8     5    19 1   
     9     7     8 1   
    10     8     9 1   
    11     8    18 1   
    12     8    37 1   
    13     9    10 1   
    14     9    38 1   
    15     9    39 1   
    16    10    11 1   
    17    10    12 1   
    18    10    13 1   
    19    11    40 1   
    20    11    41 1   
    21    11    42 1   
    22    12    43 1   
    23    12    44 1   
    24    12    64 1   
    25    13    14 1   
    26    13    15 1   
    27    13    16 1   
    28    14    45 1   
    29    15    46 1   
    30    16    17 1   
    31    16    18 1   
    32    16    47 1   
    33    17    48 1   
    34    17    49 1   
    35    17    50 1   
    36    20    21 1   
    37    21    22 1   
    38    21    51 1   
    39    21    52 1   
    40    22    23 1   
    41    22    27 1   
    42    22    53 1   
    43    23    24 1   
    44    23    25 1   
    45    23    54 1   
    46    24    55 1   
    47    25    26 1   
    48    25    56 1   
    49    25    57 1   
    50    26    27 1   
    51    26    28 1   
    52    26    58 1   
    53    28    29 1   
    54    28    36 1   
    55    29    30 2   
    56    29    31 1   
    57    31    32 1   
    58    31    59 1   
    59    32    33 2   
    60    32    34 1   
    61    34    35 1   
    62    34    36 2   
    63    35    60 1   
    64    35    61 1   
    65    35    62 1   
    66    36    63 1   
@<TRIPOS>SUBSTRUCTURE
     1 AKM         1 TEMP              0 ****  ****    0 ROOT
