@<TRIPOS>MOLECULE
AKR
    8     7     1     0     0
SMALL
bcc


@<TRIPOS>ATOM
      1 CA          0.0140   -0.0010    0.0180 ce        1 AKR     -0.203200
      2 CB          1.3430    0.0000   -0.0250 c2        1 AKR     -0.261000
      3 C          -0.7890    0.0000    1.2990 c         1 AKR      0.890800
      4 O          -0.1840    0.0000    2.4110 o         1 AKR     -0.845800
      5 OXT        -2.0510    0.0010    1.1910 o         1 AKR     -0.845800
      6 HA1        -0.5970   -0.0010   -0.8980 ha        1 AKR      0.091000
      7 HB2         1.9420    0.0010    0.8960 ha        1 AKR      0.086500
      8 HB3         1.9140   -0.0000   -0.9610 ha        1 AKR      0.086500
@<TRIPOS>BOND
     1    1    2 2   
     2    1    3 1   
     3    1    6 1   
     4    2    7 1   
     5    2    8 1   
     6    3    4 1   
     7    3    5 1   
@<TRIPOS>SUBSTRUCTURE
     1 AKR         1 TEMP              0 ****  ****    0 ROOT
