@<TRIPOS>MOLECULE
molecule
    8     7     1     0     0
SMALL
bcc


@<TRIPOS>ATOM
      1 CA           0.0000     0.0000     0.0000 ce         1 AKR      -0.187200
      2 CB           1.3300     0.0000     0.0000 c2         1 AKR      -0.263000
      3 C           -0.7340     0.0000     1.2720 c          1 AKR       0.870800
      4 O           -0.1260     0.0000     2.3240 o          1 AKR      -0.850800
      5 OXT         -2.0820     0.0000     1.2730 o          1 AKR      -0.850800
      6 HA1         -0.5420    -0.0000    -0.9380 ha         1 AKR       0.094000
      7 HB2          1.8720    -0.0000    -0.9380 ha         1 AKR       0.093000
      8 HB3          1.8720     0.0000     0.9380 ha         1 AKR       0.093000
@<TRIPOS>BOND
     1     1     2 2
     2     1     3 1
     3     1     6 1
     4     2     7 1
     5     2     8 1
     6     3     4 1
     7     3     5 1
@<TRIPOS>SUBSTRUCTURE
     1 AKR         1 TEMP              0 ****  ****    0 ROOT
