@<TRIPOS>MOLECULE
molecule
   35    34     1     0     0
SMALL
bcc


@<TRIPOS>ATOM
      1 C1           0.0000     0.0000     0.0000 c3         1 AKS      -0.095400
      2 C2           1.5300     0.0000     0.0000 c3         1 AKS      -0.166400
      3 C3           2.0400     0.0000     1.4420 c3         1 AKS      -0.040400
      4 C4           3.5700    -0.0000     1.4430 c3         1 AKS      -0.191400
      5 C5           4.0720    -0.0000     2.8640 c          1 AKS       0.700100
      6 C6          -0.5100     0.0000    -1.4420 c3         1 AKS      -0.412100
      7 H1          -0.1280    -0.7780     0.7430 hc         1 AKS       0.053200
      8 H2          -0.2510     0.9350     0.4860 hc         1 AKS       0.053200
      9 H3           1.6290     0.9250    -0.5550 hc         1 AKS       0.011700
     10 H4           1.6190    -0.4820    -0.9660 hc         1 AKS       0.011700
     11 H5           1.7570    -0.9560     1.8660 hc         1 AKS       0.062700
     12 H6           1.3760     0.6460     2.0040 hc         1 AKS       0.062700
     13 H7           3.8010     1.0560     1.3710 hc         1 AKS       0.074200
     14 H8           3.6450    -0.3170     0.4100 hc         1 AKS       0.074200
     15 H12          0.0340     0.8850    -1.7490 hc         1 AKS       0.153033
     16 O1           3.2840     0.0000     3.7860 o          1 AKS      -0.609100
     17 N1           5.3970    -0.0000     3.1110 ns         1 AKS      -0.585900
     18 C7           5.8860     0.0000     4.4920 c3         1 AKS       0.086000
     19 C8           7.4150    -0.0000     4.4930 c3         1 AKS      -0.111400
     20 C9           7.9250     0.0000     5.9350 c3         1 AKS      -0.069400
     21 C10          9.4550    -0.0000     5.9350 c3         1 AKS       0.006700
     22 C11          9.9460    -0.0000     7.3230 c1         1 AKS      -0.149100
     23 C12         10.3360     0.0200     8.4310 c1         1 AKS      -0.151500
     24 H9          -0.2130    -0.9200    -1.9300 hc         1 AKS       0.153033
     25 H10         -0.0870     0.8440    -1.9750 hc         1 AKS       0.153033
     26 H11          6.0480     0.0100     2.3510 hn         1 AKS       0.312500
     27 H13          5.1930     0.5470     5.1200 h1         1 AKS       0.064700
     28 H14          5.9660    -1.0200     4.8470 h1         1 AKS       0.064700
     29 H15          7.7770    -0.5830     3.6540 hc         1 AKS       0.048700
     30 H16          7.7760     1.0180     4.4080 hc         1 AKS       0.048700
     31 H17          7.4100     0.7670     6.5000 hc         1 AKS       0.053200
     32 H18          7.7360    -0.9670     6.3850 hc         1 AKS       0.053200
     33 H19          9.8160    -0.8720     5.4030 hc         1 AKS       0.057700
     34 H20          9.8160     0.8970     5.4460 hc         1 AKS       0.057700
     35 H22         10.6900     0.0210     9.4540 ha         1 AKS       0.165500
@<TRIPOS>BOND
     1     1     2 1
     2     5     4 1
     3     3     4 1
     4     3     2 1
     5     1     6 1
     6     1     7 1
     7     1     8 1
     8     2     9 1
     9     2    10 1
    10     3    11 1
    11     3    12 1
    12     4    13 1
    13     4    14 1
    14     6    15 1
    15     5    16 2
    16     5    17 1
    17    17    18 1
    18    18    19 1
    19    19    20 1
    20    20    21 1
    21    21    22 1
    22    22    23 3
    23     6    24 1
    24     6    25 1
    25    17    26 1
    26    18    27 1
    27    18    28 1
    28    19    29 1
    29    19    30 1
    30    20    31 1
    31    20    32 1
    32    21    33 1
    33    21    34 1
    34    23    35 1
@<TRIPOS>SUBSTRUCTURE
     1 AKS         1 TEMP              0 ****  ****    0 ROOT
