@<TRIPOS>MOLECULE
AKS
   35    34     1     0     0
SMALL
bcc


@<TRIPOS>ATOM
      1 C1           0.0000     0.0000     0.0000 c3         1 AKS      -0.053400
      2 C2           1.5300     0.0000     0.0000 c3         1 AKS      -0.113400
      3 C3           2.0400     0.0000     1.4420 c3         1 AKS       0.019600
      4 C4           3.5700    -0.0000     1.4430 c3         1 AKS      -0.146400
      5 C5           4.0720    -0.0000     2.8640 c          1 AKS       0.626100
      6 C6          -0.5100     0.0000    -1.4420 c3         1 AKS      -0.315100
      7 H1          -0.1280    -0.7780     0.7430 hc         1 AKS       0.030200
      8 H2          -0.2510     0.9350     0.4860 hc         1 AKS       0.030200
      9 H3           1.6290     0.9250    -0.5550 hc         1 AKS      -0.010300
     10 H4           1.6190    -0.4820    -0.9660 hc         1 AKS      -0.010300
     11 H5           1.7570    -0.9560     1.8660 hc         1 AKS       0.033700
     12 H6           1.3760     0.6460     2.0040 hc         1 AKS       0.033700
     13 H7           3.8010     1.0560     1.3710 hc         1 AKS       0.045200
     14 H8           3.6450    -0.3170     0.4100 hc         1 AKS       0.045200
     15 H12          0.0340     0.8850    -1.7490 hc         1 AKS       0.118367
     16 O1           3.2840     0.0000     3.7860 o          1 AKS      -0.652100
     17 N1           5.3970    -0.0000     3.1110 ns         1 AKS      -0.198900
     18 C7           5.8860     0.0000     4.4920 c3         1 AKS       0.017000
     19 C8           7.4150    -0.0000     4.4930 c3         1 AKS      -0.054400
     20 C9           7.9250     0.0000     5.9350 c3         1 AKS      -0.017400
     21 C10          9.4550    -0.0000     5.9350 c3         1 AKS       0.107700
     22 C11          9.9460    -0.0000     7.3230 c1         1 AKS      -0.169100
     23 C12         10.3360     0.0200     8.4310 c1         1 AKS      -0.120500
     24 H9          -0.2130    -0.9200    -1.9300 hc         1 AKS       0.118367
     25 H10         -0.0870     0.8440    -1.9750 hc         1 AKS       0.118367
     26 H11          6.0480     0.0100     2.3510 hn         1 AKS       0.172500
     27 H13          5.1930     0.5470     5.1200 h1         1 AKS       0.040200
     28 H14          5.9660    -1.0200     4.8470 h1         1 AKS       0.040200
     29 H15          7.7770    -0.5830     3.6540 hc         1 AKS       0.021200
     30 H16          7.7760     1.0180     4.4080 hc         1 AKS       0.021200
     31 H17          7.4100     0.7670     6.5000 hc         1 AKS       0.023200
     32 H18          7.7360    -0.9670     6.3850 hc         1 AKS       0.023200
     33 H19          9.8160    -0.8720     5.4030 hc         1 AKS       0.018700
     34 H20          9.8160     0.8970     5.4460 hc         1 AKS       0.018700
     35 H22         10.6900     0.0210     9.4540 ha         1 AKS       0.139500
@<TRIPOS>BOND
     1     1     2 1   
     2     1     6 1   
     3     1     7 1   
     4     1     8 1   
     5     2     3 1   
     6     2     9 1   
     7     2    10 1   
     8     3     4 1   
     9     3    11 1   
    10     3    12 1   
    11     4     5 1   
    12     4    13 1   
    13     4    14 1   
    14     5    16 2   
    15     5    17 1   
    16     6    15 1   
    17     6    24 1   
    18     6    25 1   
    19    17    18 1   
    20    17    26 1   
    21    18    19 1   
    22    18    27 1   
    23    18    28 1   
    24    19    20 1   
    25    19    29 1   
    26    19    30 1   
    27    20    21 1   
    28    20    31 1   
    29    20    32 1   
    30    21    22 1   
    31    21    33 1   
    32    21    34 1   
    33    22    23 3   
    34    23    35 1   
@<TRIPOS>SUBSTRUCTURE
     1 AKS         1 TEMP              0 ****  ****    0 ROOT
