@<TRIPOS>MOLECULE
molecule
   70    74     1     0     0
SMALL
bcc


@<TRIPOS>ATOM
      1 O12          0.0000     0.0000     0.0000 o          1 AKT      -0.512100
      2 C12          1.2150     0.0000     0.0000 c          1 AKT       0.591300
      3 C15          1.9650     0.0000     1.2750 ca         1 AKT      -0.097600
      4 C1           1.3210     0.2840     2.4740 ca         1 AKT      -0.121000
      5 C2           2.0370     0.2820     3.6610 ca         1 AKT      -0.077000
      6 C3           3.3870    -0.0020     3.6670 ca         1 AKT      -0.213000
      7 C16          3.3420    -0.2930     1.2730 ca         1 AKT      -0.165600
      8 C4           4.0510    -0.2910     2.4760 ca         1 AKT       0.181100
      9 O4           5.3780    -0.5700     2.4870 oh         1 AKT      -0.459100
     10 C5           4.0240    -0.5940    -0.0000 c          1 AKT       0.582300
     11 O5           5.1350    -1.0890    -0.0000 o          1 AKT      -0.478100
     12 C18          1.9650     0.0030    -1.2750 ca         1 AKT      -0.119600
     13 C17          3.3430    -0.2910    -1.2730 ca         1 AKT      -0.168600
     14 C6           4.0440    -0.2910    -2.4780 ca         1 AKT       0.166100
     15 O6           5.3690    -0.5750    -2.4880 oh         1 AKT      -0.501100
     16 C11          1.3290     0.2900    -2.4720 ca         1 AKT      -0.096000
     17 C19          2.0400     0.2940    -3.6710 ca         1 AKT      -0.029300
     18 C10          1.2800     0.6330    -4.9270 c3         1 AKT      -0.061100
     19 C20          3.3840     0.0020    -3.6770 ca         1 AKT      -0.089300
     20 C7           4.2040    -0.0200    -4.9420 c3         1 AKT       0.193400
     21 C8           3.4840     0.7300    -6.0620 c3         1 AKT      -0.082400
     22 C9           2.0540     0.1860    -6.1640 c3         1 AKT       0.153800
     23 O9           2.0850    -1.2410    -6.2240 oh         1 AKT      -0.575800
     24 C13          1.3820     0.7410    -7.4220 c3         1 AKT      -0.115400
     25 C14         -0.0850     0.3080    -7.4480 c3         1 AKT      -0.098100
     26 O7           4.4140    -1.3750    -5.3430 os         1 AKT      -0.382600
     27 C1'          5.8290    -1.5650    -5.4280 c3         1 AKT       0.298900
     28 C2'          6.1370    -3.0620    -5.5020 c3         1 AKT      -0.085400
     29 C3'          5.4360    -3.6570    -6.7280 c3         1 AKT       0.136500
     30 N3'          5.8440    -5.0570    -6.8990 n3         1 AKT      -0.659600
     31 C8'          5.4460    -5.7660    -5.6750 c3         1 AKT       0.120100
     32 C7'          5.0270    -5.6060    -7.9900 c3         1 AKT       0.120100
     33 C4'          5.8380    -2.8460    -7.9650 c3         1 AKT       0.130100
     34 O4'          7.2310    -3.0270    -8.2240 oh         1 AKT      -0.575800
     35 C5'          5.5510    -1.3650    -7.7050 c3         1 AKT       0.109100
     36 O5'          6.3240    -0.9130    -6.5970 os         1 AKT      -0.412600
     37 C6'          5.9190    -0.5500    -8.9470 c3         1 AKT      -0.086100
     38 H2           0.2610     0.5080     2.4800 ha         1 AKT       0.156000
     39 H3           1.5310     0.5050     4.5930 ha         1 AKT       0.140000
     40 H4           3.9340    -0.0000     4.6020 ha         1 AKT       0.138000
     41 HO4          5.6910    -0.5750     3.3760 ho         1 AKT       0.422000
     42 HO6          5.8580     0.1960    -2.2510 ho         1 AKT       0.429000
     43 H11          0.2690     0.5110    -2.4770 ha         1 AKT       0.154000
     44 H101         0.3200     0.1310    -4.9080 hc         1 AKT       0.061700
     45 H102         1.1270     1.7050    -4.9710 hc         1 AKT       0.061700
     46 H7           5.1590     0.4550    -4.7540 h1         1 AKT       0.059700
     47 H81          3.4560     1.7880    -5.8310 hc         1 AKT       0.063700
     48 H82          4.0030     0.5690    -6.9990 hc         1 AKT       0.063700
     49 HO9          1.2340    -1.5640    -6.4690 ho         1 AKT       0.398000
     50 H131         1.8870     0.3590    -8.3000 hc         1 AKT       0.054200
     51 H132         1.4390     1.8230    -7.4150 hc         1 AKT       0.054200
     52 H141        -0.1660    -0.7150    -7.1010 hc         1 AKT       0.036700
     53 H142        -0.4640     0.3760    -8.4610 hc         1 AKT       0.036700
     54 H143        -0.6650     0.9560    -6.8020 hc         1 AKT       0.036700
     55 H1'          6.3070    -1.1430    -4.5530 h2         1 AKT       0.086700
     56 H2'1         5.7740    -3.5500    -4.6060 hc         1 AKT       0.074700
     57 H2'2         7.2070    -3.2060    -5.5920 hc         1 AKT       0.074700
     58 H3'          4.3630    -3.6000    -6.5930 h1         1 AKT       0.054700
     59 H8'1         4.4770    -5.4080    -5.3500 h1         1 AKT       0.034033
     60 H8'2         6.1780    -5.5850    -4.8980 h1         1 AKT       0.034033
     61 H8'3         5.3890    -6.8290    -5.8760 h1         1 AKT       0.034033
     62 H7'1         5.4710    -5.3410    -8.9420 h1         1 AKT       0.034033
     63 H7'2         4.0260    -5.1970    -7.9320 h1         1 AKT       0.034033
     64 H7'3         4.9820    -6.6840    -7.9000 h1         1 AKT       0.034033
     65 H4'          5.2600    -3.1800    -8.8180 h1         1 AKT       0.031700
     66 H1           7.3490    -3.3300    -9.1090 ho         1 AKT       0.393000
     67 H5'          4.4980    -1.2370    -7.4840 h1         1 AKT       0.073700
     68 H6'1         6.9260    -0.1650    -8.8410 hc         1 AKT       0.041033
     69 H6'2         5.2270     0.2760    -9.0560 hc         1 AKT       0.041033
     70 H6'3         5.8650    -1.1840    -9.8240 hc         1 AKT       0.041033
@<TRIPOS>BOND
     1     1     2 2
     2     2     3 1
     3     2    12 1
     4     3     4 ar
     5     3     7 ar
     6     4     5 ar
     7     4    38 1
     8     5     6 ar
     9     5    39 1
    10     6     8 ar
    11     6    40 1
    12     7     8 ar
    13     7    10 1
    14     8     9 1
    15     9    41 1
    16    10    11 2
    17    10    13 1
    18    12    13 ar
    19    12    16 ar
    20    13    14 ar
    21    14    15 1
    22    14    19 ar
    23    15    42 1
    24    16    17 ar
    25    16    43 1
    26    17    18 1
    27    17    19 ar
    28    18    22 1
    29    18    44 1
    30    18    45 1
    31    19    20 1
    32    20    21 1
    33    20    26 1
    34    20    46 1
    35    21    22 1
    36    21    47 1
    37    21    48 1
    38    22    23 1
    39    22    24 1
    40    23    49 1
    41    24    25 1
    42    24    50 1
    43    24    51 1
    44    25    52 1
    45    25    53 1
    46    25    54 1
    47    26    27 1
    48    27    28 1
    49    27    36 1
    50    27    55 1
    51    28    29 1
    52    28    56 1
    53    28    57 1
    54    29    30 1
    55    29    33 1
    56    29    58 1
    57    30    31 1
    58    30    32 1
    59    31    59 1
    60    31    60 1
    61    31    61 1
    62    32    62 1
    63    32    63 1
    64    32    64 1
    65    33    34 1
    66    33    35 1
    67    33    65 1
    68    34    66 1
    69    35    36 1
    70    35    37 1
    71    35    67 1
    72    37    68 1
    73    37    69 1
    74    37    70 1
@<TRIPOS>SUBSTRUCTURE
     1 AKT         1 TEMP              0 ****  ****    0 ROOT
