@<TRIPOS>MOLECULE
molecule
   52    54     1     0     0
SMALL
bcc


@<TRIPOS>ATOM
      1 O20          0.0000     0.0000     0.0000 o          1 AKV      -0.492100
      2 C5           1.2160     0.0000     0.0000 c          1 AKV       0.591300
      3 C17          1.9630     0.0000     1.2730 ca         1 AKV      -0.171600
      4 C6           1.3150     0.2850     2.4770 ca         1 AKV       0.189100
      5 O21         -0.0130     0.5630     2.4880 oh         1 AKV      -0.497100
      6 C16          1.9620     0.0000    -1.2740 ca         1 AKV      -0.163600
      7 C4           1.3140     0.2880    -2.4770 ca         1 AKV       0.180100
      8 O19         -0.0120     0.5700    -2.4870 oh         1 AKV      -0.462100
      9 C3           2.0380     0.2810    -3.6670 ca         1 AKV      -0.209000
     10 C2           3.3870    -0.0050    -3.6620 ca         1 AKV      -0.079000
     11 C1           4.0430    -0.2910    -2.4750 ca         1 AKV      -0.118000
     12 C21          3.3400    -0.2900    -1.2760 ca         1 AKV      -0.098600
     13 C12          4.0260    -0.5900    -0.0010 c          1 AKV       0.590300
     14 O18          5.1390    -1.0790    -0.0010 o          1 AKV      -0.511100
     15 C18          3.3410    -0.2880     1.2740 ca         1 AKV      -0.116600
     16 C11          4.0460    -0.2860     2.4730 ca         1 AKV      -0.081000
     17 C19          3.3910     0.0040     3.6600 ca         1 AKV      -0.045300
     18 C10          4.1590     0.0040     4.9560 c3         1 AKV      -0.087100
     19 C14          4.0190    -1.3400     5.6240 c          1 AKV       0.631100
     20 O16          4.6240    -1.5720     6.7990 os         1 AKV      -0.438900
     21 C15          4.4880    -2.8670     7.4420 c3         1 AKV       0.147700
     22 O17          3.3610    -2.2090     5.1000 o          1 AKV      -0.542000
     23 C20          2.0390     0.2800     3.6660 ca         1 AKV      -0.098300
     24 C7           1.3440     0.5870     4.9680 c3         1 AKV       0.197400
     25 O22          0.1260    -0.1550     5.0430 oh         1 AKV      -0.596800
     26 C8           1.0350     2.0840     5.0420 c3         1 AKV      -0.086400
     27 C9           0.4430     2.4160     6.4120 c3         1 AKV       0.142100
     28 O23          1.4250     2.1830     7.4250 oh         1 AKV      -0.617800
     29 C13          0.0180     3.8850     6.4430 c3         1 AKV      -0.103400
     30 C22         -0.6860     4.1860     7.7670 c3         1 AKV      -0.094100
     31 H21         -0.5020    -0.2320     2.3590 ho         1 AKV       0.447000
     32 H19         -0.3510     0.4570    -3.3590 ho         1 AKV       0.423000
     33 H3           1.5380     0.5040    -4.6020 ha         1 AKV       0.138000
     34 H2           3.9390    -0.0070    -4.5940 ha         1 AKV       0.140000
     35 H1           5.1030    -0.5150    -2.4820 ha         1 AKV       0.157000
     36 H11          5.0960    -0.5510     2.4840 ha         1 AKV       0.156000
     37 H101         3.7660     0.7740     5.6090 hc         1 AKV       0.090700
     38 H102         5.2060     0.2000     4.7550 hc         1 AKV       0.090700
     39 H151         3.4420    -3.0600     7.6490 h1         1 AKV       0.049367
     40 H152         4.8750    -3.6380     6.7870 h1         1 AKV       0.049367
     41 H153         5.0460    -2.8690     8.3710 h1         1 AKV       0.049367
     42 H7           1.9870     0.3100     5.7950 h1         1 AKV       0.047700
     43 H22          0.2090    -0.8320     5.6940 ho         1 AKV       0.404000
     44 H81          1.9480     2.6490     4.8960 hc         1 AKV       0.072200
     45 H82          0.3230     2.3440     4.2680 hc         1 AKV       0.072200
     46 H9          -0.4200     1.7870     6.5950 h1         1 AKV       0.044700
     47 H23          1.0140     1.7890     8.1760 ho         1 AKV       0.401000
     48 H131         0.8940     4.5160     6.3480 hc         1 AKV       0.052700
     49 H132        -0.6590     4.0820     5.6200 hc         1 AKV       0.052700
     50 H221        -1.3980     3.3990     7.9840 hc         1 AKV       0.034367
     51 H222         0.0470     4.2400     8.5620 hc         1 AKV       0.034367
     52 H223        -1.2070     5.1330     7.6910 hc         1 AKV       0.034367
@<TRIPOS>BOND
     1     1     2 2
     2     2     3 1
     3     2     6 1
     4     3     4 ar
     5     3    15 ar
     6     4     5 1
     7     4    23 ar
     8     5    31 1
     9     6     7 ar
    10     6    12 ar
    11     7     8 1
    12     7     9 ar
    13     8    32 1
    14     9    10 ar
    15     9    33 1
    16    10    11 ar
    17    10    34 1
    18    11    12 ar
    19    11    35 1
    20    12    13 1
    21    13    14 2
    22    13    15 1
    23    15    16 ar
    24    16    17 ar
    25    16    36 1
    26    17    18 1
    27    17    23 ar
    28    18    19 1
    29    18    37 1
    30    18    38 1
    31    19    20 1
    32    19    22 2
    33    20    21 1
    34    21    39 1
    35    21    40 1
    36    21    41 1
    37    23    24 1
    38    24    25 1
    39    24    26 1
    40    24    42 1
    41    25    43 1
    42    26    27 1
    43    26    44 1
    44    26    45 1
    45    27    28 1
    46    27    29 1
    47    27    46 1
    48    28    47 1
    49    29    30 1
    50    29    48 1
    51    29    49 1
    52    30    50 1
    53    30    51 1
    54    30    52 1
@<TRIPOS>SUBSTRUCTURE
     1 AKV         1 TEMP              0 ****  ****    0 ROOT
