@<TRIPOS>MOLECULE
AKV
   52    54     1     0     0
SMALL
bcc


@<TRIPOS>ATOM
      1 O20        -0.0400   -0.6330   -0.2940 o         1 AKV     -0.532100
      2 C5          1.1630   -0.3760   -0.1370 c         1 AKV      0.604300
      3 C17         1.7550   -0.2060    1.2050 ca        1 AKV     -0.218600
      4 C6          0.9650    0.0620    2.3390 ca        1 AKV      0.197100
      5 O21        -0.3960    0.1750    2.3200 oh        1 AKV     -0.487100
      6 C16         2.0770   -0.2340   -1.2860 ca        1 AKV     -0.160600
      7 C4          1.5770    0.0220   -2.5790 ca        1 AKV      0.173100
      8 O19         0.2230    0.1890   -2.7090 oh        1 AKV     -0.462100
      9 C3          2.4460    0.1210   -3.6820 ca        1 AKV     -0.205000
     10 C2          3.8120   -0.0360   -3.4960 ca        1 AKV     -0.074000
     11 C1          4.3260   -0.2810   -2.2190 ca        1 AKV     -0.123000
     12 C21         3.4660   -0.3700   -1.1240 ca        1 AKV     -0.094600
     13 C12         4.0360   -0.6050    0.2220 c         1 AKV      0.583300
     14 O18         5.2050   -0.9850    0.3740 o         1 AKV     -0.513100
     15 C18         3.1480   -0.3310    1.3730 ca        1 AKV     -0.096600
     16 C11         3.7220   -0.2010    2.6320 ca        1 AKV     -0.116000
     17 C19         2.9330    0.0840    3.7590 ca        1 AKV     -0.030300
     18 C10         3.6250    0.2390    5.0710 c3        1 AKV     -0.106100
     19 C14         3.6490   -1.0490    5.8420 c         1 AKV      0.639100
     20 O16         4.9220   -1.4750    6.1080 os        1 AKV     -0.439900
     21 C15         5.0530   -2.6830    6.8580 c3        1 AKV      0.125700
     22 O17         2.7090   -1.7220    6.2680 o         1 AKV     -0.537000
     23 C20         1.5510    0.2330    3.6250 ca        1 AKV     -0.119300
     24 C7          0.7080    0.5670    4.8280 c3        1 AKV      0.188400
     25 O22        -0.6580    0.2040    4.6960 oh        1 AKV     -0.587800
     26 C8          0.7130    2.0790    5.0850 c3        1 AKV     -0.074400
     27 C9          0.5220    2.3790    6.5690 c3        1 AKV      0.139100
     28 O23         1.7610    2.0620    7.2010 oh        1 AKV     -0.620800
     29 C13         0.1590    3.8450    6.7880 c3        1 AKV     -0.116400
     30 C22        -0.2300    4.1250    8.2160 c3        1 AKV     -0.097100
     31 H21        -0.7380    0.0900    1.4150 ho        1 AKV      0.458000
     32 H19         0.0230    0.3130   -3.6500 ho        1 AKV      0.423000
     33 H3          2.0370    0.3190   -4.6840 ha        1 AKV      0.143000
     34 H2          4.4960    0.0330   -4.3560 ha        1 AKV      0.145000
     35 H1          5.4100   -0.4090   -2.0660 ha        1 AKV      0.163000
     36 H11         4.8130   -0.3280    2.7420 ha        1 AKV      0.165000
     37 H101        4.6810    0.5900    4.9070 hc        1 AKV      0.107700
     38 H102        3.1050    1.0070    5.7160 hc        1 AKV      0.107700
     39 H151        4.5720   -3.5270    6.3080 h1        1 AKV      0.051700
     40 H152        6.1590   -2.8230    6.9410 h1        1 AKV      0.051700
     41 H153        4.5790   -2.5600    7.8620 h1        1 AKV      0.051700
     42 H7          1.1310    0.0160    5.7230 h1        1 AKV      0.076700
     43 H22        -0.6890   -0.6940    4.3430 ho        1 AKV      0.415000
     44 H81        -0.1240    2.5470    4.5060 hc        1 AKV      0.066700
     45 H82         1.6820    2.5180    4.7390 hc        1 AKV      0.066700
     46 H9         -0.2890    1.7170    6.9870 h1        1 AKV      0.054700
     47 H23         1.6340    2.1950    8.1470 ho        1 AKV      0.406000
     48 H131        1.0340    4.4840    6.4990 hc        1 AKV      0.053700
     49 H132       -0.6950    4.1070    6.1090 hc        1 AKV      0.053700
     50 H221       -0.5500    5.1890    8.3260 hc        1 AKV      0.035367
     51 H222        0.6300    3.9480    8.9060 hc        1 AKV      0.035367
     52 H223       -1.0770    3.4680    8.5320 hc        1 AKV      0.035367
@<TRIPOS>BOND
     1    1    2 2   
     2    2    3 1   
     3    2    6 1   
     4    3    4 ar  
     5    3   15 ar  
     6    4    5 1   
     7    4   23 ar  
     8    5   31 1   
     9    6    7 ar  
    10    6   12 ar  
    11    7    8 1   
    12    7    9 ar  
    13    8   32 1   
    14    9   10 ar  
    15    9   33 1   
    16   10   11 ar  
    17   10   34 1   
    18   11   12 ar  
    19   11   35 1   
    20   12   13 1   
    21   13   14 2   
    22   13   15 1   
    23   15   16 ar  
    24   16   17 ar  
    25   16   36 1   
    26   17   18 1   
    27   17   23 ar  
    28   18   19 1   
    29   18   37 1   
    30   18   38 1   
    31   19   20 1   
    32   19   22 2   
    33   20   21 1   
    34   21   39 1   
    35   21   40 1   
    36   21   41 1   
    37   23   24 1   
    38   24   25 1   
    39   24   26 1   
    40   24   42 1   
    41   25   43 1   
    42   26   27 1   
    43   26   44 1   
    44   26   45 1   
    45   27   28 1   
    46   27   29 1   
    47   27   46 1   
    48   28   47 1   
    49   29   30 1   
    50   29   48 1   
    51   29   49 1   
    52   30   50 1   
    53   30   51 1   
    54   30   52 1   
@<TRIPOS>SUBSTRUCTURE
     1 AKV         1 TEMP              0 ****  ****    0 ROOT
