@<TRIPOS>MOLECULE
molecule
   94    98     1     0     0
SMALL
bcc


@<TRIPOS>ATOM
      1 O3           0.0000     0.0000     0.0000 oh         1 AKX      -0.594800
      2 C25          1.4290     0.0000     0.0000 c3         1 AKX       0.160800
      3 C27          1.9400     0.0000     1.4420 c3         1 AKX      -0.044600
      4 C34          1.5410    -1.2890     2.1150 ca         1 AKX      -0.076800
      5 C39          2.3810    -2.3850     2.0610 ca         1 AKX      -0.119750
      6 C38          2.0160    -3.5670     2.6780 ca         1 AKX      -0.129000
      7 C37          0.8110    -3.6520     3.3490 ca         1 AKX      -0.131000
      8 C36         -0.0290    -2.5560     3.4040 ca         1 AKX      -0.129000
      9 C35          0.3380    -1.3730     2.7900 ca         1 AKX      -0.119750
     10 C26          1.9380    -1.2490    -0.7220 c3         1 AKX      -0.044600
     11 C28          1.4120    -1.2620    -2.1350 ca         1 AKX      -0.076800
     12 C33          2.2540    -0.9630    -3.1890 ca         1 AKX      -0.119750
     13 C32          1.7710    -0.9760    -4.4840 ca         1 AKX      -0.129000
     14 C31          0.4460    -1.2880    -4.7250 ca         1 AKX      -0.131000
     15 C30         -0.3960    -1.5880    -3.6700 ca         1 AKX      -0.129000
     16 C29          0.0890    -1.5800    -2.3750 ca         1 AKX      -0.119750
     17 C24          1.9390     1.2500    -0.7210 c3         1 AKX      -0.102400
     18 C23          1.0930     1.4980    -1.9720 c3         1 AKX      -0.102400
     19 C22          1.5280     2.8090    -2.6300 c3         1 AKX      -0.079400
     20 C20          0.6820     3.0560    -3.8810 c3         1 AKX      -0.068700
     21 C21         -0.7770     3.2710    -3.4760 c3         1 AKX      -0.094100
     22 C17          1.2000     4.3000    -4.6080 c3         1 AKX      -0.054700
     23 C13          0.3940     4.5440    -5.8750 c3         1 AKX      -0.060000
     24 C18         -0.0280     3.2000    -6.4710 c3         1 AKX      -0.092100
     25 C12         -0.8090     5.4550    -5.7960 c3         1 AKX      -0.065400
     26 C11         -1.4950     5.4370    -7.1730 c3         1 AKX      -0.078400
     27 C9          -0.5530     5.9060    -8.2810 c3         1 AKX      -0.043200
     28 C16          2.6560     4.0750    -5.0910 c3         1 AKX      -0.081400
     29 C15          2.6460     4.3030    -6.6290 c3         1 AKX      -0.078400
     30 C14          1.4260     5.2090    -6.8290 c3         1 AKX      -0.035500
     31 C8           0.7880     5.1910    -8.1870 c2         1 AKX      -0.093400
     32 C7           1.3520     4.5960    -9.2310 ce         1 AKX      -0.154000
     33 C6           0.6780     4.6100   -10.5380 ce         1 AKX      -0.131000
     34 C5           1.1830     3.9180   -11.5540 c2         1 AKX      -0.113400
     35 C10          0.5770     4.0260   -12.9350 c3         1 AKX      -0.044700
     36 C1           1.6780     4.4320   -13.9220 c3         1 AKX       0.193800
     37 O1           2.0590     5.7880   -13.6850 oh         1 AKX      -0.603300
     38 C4           2.3780     3.0150   -11.3500 c3         1 AKX      -0.044700
     39 C3           3.4750     3.4230   -12.3420 c3         1 AKX       0.193800
     40 O2           4.5090     2.4370   -12.3460 oh         1 AKX      -0.603300
     41 C2           2.8700     3.5230   -13.7170 c2         1 AKX      -0.159400
     42 C40          3.3670     2.8410   -14.7190 c2         1 AKX      -0.195000
     43 H1          -0.3140     0.6510     0.6050 ho         1 AKX       0.399000
     44 H2           1.5070     0.8360     1.9780 hc         1 AKX       0.057950
     45 H3           3.0190     0.0890     1.4430 hc         1 AKX       0.057950
     46 H4           3.3260    -2.3180     1.5360 ha         1 AKX       0.132000
     47 H5           2.6750    -4.4260     2.6360 ha         1 AKX       0.129000
     48 H6           0.5240    -4.5790     3.8310 ha         1 AKX       0.128000
     49 H7          -0.9730    -2.6220     3.9310 ha         1 AKX       0.129000
     50 H8          -0.3200    -0.5130     2.8330 ha         1 AKX       0.132000
     51 H9           1.5940    -2.1330    -0.2000 hc         1 AKX       0.057950
     52 H10          3.0220    -1.2390    -0.7410 hc         1 AKX       0.057950
     53 H11          3.2920    -0.7180    -3.0010 ha         1 AKX       0.132000
     54 H12          2.4310    -0.7410    -5.3100 ha         1 AKX       0.129000
     55 H13          0.0670    -1.2960    -5.7400 ha         1 AKX       0.128000
     56 H14         -1.4340    -1.8350    -3.8580 ha         1 AKX       0.129000
     57 H15         -0.5710    -1.8150    -1.5480 ha         1 AKX       0.132000
     58 H16          1.8630     2.1040    -0.0590 hc         1 AKX       0.041200
     59 H17          2.9730     1.1060    -1.0070 hc         1 AKX       0.041200
     60 H18          1.2320     0.6800    -2.6690 hc         1 AKX       0.066700
     61 H19          0.0480     1.5620    -1.6940 hc         1 AKX       0.066700
     62 H20          2.5740     2.7440    -2.9080 hc         1 AKX       0.036700
     63 H21          1.3900     3.6270    -1.9330 hc         1 AKX       0.036700
     64 H22          0.7520     2.1980    -4.5390 hc         1 AKX       0.062700
     65 H23         -1.4280     2.8670    -4.2420 hc         1 AKX       0.035700
     66 H24         -0.9690     2.7680    -2.5360 hc         1 AKX       0.035700
     67 H25         -0.9680     4.3320    -3.3630 hc         1 AKX       0.035700
     68 H26          1.1500     5.1670    -3.9610 hc         1 AKX       0.052700
     69 H27          0.7620     2.4740    -6.3210 hc         1 AKX       0.040367
     70 H28         -0.2120     3.3180    -7.5330 hc         1 AKX       0.040367
     71 H29         -0.9320     2.8560    -5.9840 hc         1 AKX       0.040367
     72 H30         -0.4900     6.4630    -5.5580 hc         1 AKX       0.045200
     73 H31         -1.4940     5.0920    -5.0400 hc         1 AKX       0.045200
     74 H32         -2.3570     6.0930    -7.1440 hc         1 AKX       0.042700
     75 H33         -1.8200     4.4270    -7.3910 hc         1 AKX       0.042700
     76 H34         -0.3950     6.9730    -8.1850 hc         1 AKX       0.049200
     77 H35         -1.0030     5.6920    -9.2430 hc         1 AKX       0.049200
     78 H36          3.3180     4.7880    -4.6150 hc         1 AKX       0.043700
     79 H37          2.9680     3.0620    -4.8680 hc         1 AKX       0.043700
     80 H38          3.5520     4.8050    -6.9470 hc         1 AKX       0.046700
     81 H39          2.5150     3.3640    -7.1530 hc         1 AKX       0.046700
     82 H40          1.6410     6.2230    -6.5140 hc         1 AKX       0.065700
     83 H41          2.3080     4.0980    -9.1200 ha         1 AKX       0.135000
     84 H42         -0.1750     5.2580   -10.6970 ha         1 AKX       0.131000
     85 H43         -0.2030     4.7770   -12.9320 hc         1 AKX       0.058700
     86 H44          0.1660     3.0670   -13.2260 hc         1 AKX       0.058700
     87 H45          1.3120     4.3250   -14.9360 h1         1 AKX       0.046200
     88 H46          1.9620     6.2860   -14.4800 ho         1 AKX       0.401000
     89 H47          2.0900     1.9860   -11.5310 hc         1 AKX       0.058700
     90 H48          2.7460     3.1230   -10.3370 hc         1 AKX       0.058700
     91 H49          3.8840     4.3850   -12.0550 h1         1 AKX       0.046200
     92 H50          5.3360     2.8470   -12.1520 ho         1 AKX       0.401000
     93 H51          2.9240     2.9230   -15.7040 ha         1 AKX       0.120500
     94 H52          4.2210     2.1930   -14.5610 ha         1 AKX       0.120500
@<TRIPOS>BOND
     1    42    41 2
     2    37    36 1
     3    41    36 1
     4    41    39 1
     5    36    35 1
     6    39    40 1
     7    39    38 1
     8    35    34 1
     9    38    34 1
    10    34    33 2
    11    33    32 1
    12    32    31 2
    13    31    27 1
    14    31    30 1
    15    29    30 1
    16    29    28 1
    17    27    26 1
    18    24    23 1
    19    30    23 1
    20     7     6 ar
    21     7     8 ar
    22     6     5 ar
    23    28    22 1
    24    26    25 1
    25    23    22 1
    26    23    25 1
    27     8     9 ar
    28     5     4 ar
    29    22    20 1
    30    21    20 1
    31    20    19 1
    32     9     4 ar
    33     4     3 1
    34    19    18 1
    35    17    18 1
    36    17     2 1
    37     3     2 1
    38     1     2 1
    39     2    10 1
    40    10    11 1
    41    11    12 ar
    42    11    16 ar
    43    12    13 ar
    44    16    15 ar
    45    13    14 ar
    46    15    14 ar
    47     1    43 1
    48     3    44 1
    49     3    45 1
    50     5    46 1
    51     6    47 1
    52     7    48 1
    53     8    49 1
    54     9    50 1
    55    10    51 1
    56    10    52 1
    57    12    53 1
    58    13    54 1
    59    14    55 1
    60    15    56 1
    61    16    57 1
    62    17    58 1
    63    17    59 1
    64    18    60 1
    65    18    61 1
    66    19    62 1
    67    19    63 1
    68    20    64 1
    69    21    65 1
    70    21    66 1
    71    21    67 1
    72    22    68 1
    73    24    69 1
    74    24    70 1
    75    24    71 1
    76    25    72 1
    77    25    73 1
    78    26    74 1
    79    26    75 1
    80    27    76 1
    81    27    77 1
    82    28    78 1
    83    28    79 1
    84    29    80 1
    85    29    81 1
    86    30    82 1
    87    32    83 1
    88    33    84 1
    89    35    85 1
    90    35    86 1
    91    36    87 1
    92    37    88 1
    93    38    89 1
    94    38    90 1
    95    39    91 1
    96    40    92 1
    97    42    93 1
    98    42    94 1
@<TRIPOS>SUBSTRUCTURE
     1 AKX         1 TEMP              0 ****  ****    0 ROOT
