@<TRIPOS>MOLECULE
AL0
   17    16     1     0     0
SMALL
bcc


@<TRIPOS>ATOM
      1 N            0.0000     0.0000     0.0000 nz         1 AL0       0.088400
      2 CA           1.4690     0.0000     0.0000 c3         1 AL0      -0.222500
      3 C            1.9720     0.0000     1.4210 c          1 AL0       0.953600
      4 O            3.2250    -0.3970     1.6890 o          1 AL0      -0.808800
      5 CB           1.9790     1.2500    -0.7210 c3         1 AL0       0.211800
      6 NG           1.3940     1.3110    -2.0630 nh         1 AL0      -0.089200
      7 OD1          0.1650     1.9820    -2.2710 oh         1 AL0      -0.451300
      8 ND2          2.0000     0.7540    -3.0570 n2         1 AL0       0.114600
      9 OE           1.5140     0.8050    -4.1730 o          1 AL0      -0.307300
     10 OXT          1.2460     0.3580     2.3180 o          1 AL0      -0.808800
     11 HN1         -0.3340    -0.2100    -0.9200 hn         1 AL0       0.215800
     12 HN2         -0.3340    -0.6920     0.6420 hn         1 AL0       0.215800
     13 HA           1.8300    -0.8840    -0.5110 hx         1 AL0       0.096700
     14 HB1          3.0580     1.2060    -0.7990 h1         1 AL0       0.072700
     15 HB2          1.6920     2.1320    -0.1620 h1         1 AL0       0.072700
     16 HD1          0.3240     2.8040    -2.7050 ho         1 AL0       0.431000
     17 HN3         -0.3340     0.9000     0.2840 hn         1 AL0       0.215800
@<TRIPOS>BOND
     1     1     2 1   
     2     1    11 1   
     3     1    12 1   
     4     1    17 1   
     5     2     3 1   
     6     2     5 1   
     7     2    13 1   
     8     3     4 1   
     9     3    10 1   
    10     5     6 1   
    11     5    14 1   
    12     5    15 1   
    13     6     7 1   
    14     6     8 1   
    15     7    16 1   
    16     8     9 2   
@<TRIPOS>SUBSTRUCTURE
     1 AL0         1 TEMP              0 ****  ****    0 ROOT
