@<TRIPOS>MOLECULE
molecule
   38    40     1     0     0
SMALL
bcc


@<TRIPOS>ATOM
      1 C3           0.0000     0.0000     0.0000 cc         1 AL1      -0.336600
      2 C9           1.6730    -0.5710     4.5480 c3         1 AL1       0.232800
      3 C10          0.5170     0.0300     3.7650 c3         1 AL1      -0.066100
      4 C19          3.6530     2.6520     6.8420 ca         1 AL1      -0.071000
      5 C20          4.9650     2.3460     7.1520 ca         1 AL1      -0.218000
      6 C21          5.6090     1.3030     6.5040 ca         1 AL1       0.151100
      7 C22          4.9380     0.5690     5.5390 ca         1 AL1      -0.170000
      8 C24          7.3070     1.9280     7.8220 c3         1 AL1       0.102700
      9 S1          -1.1100    -0.0020    -1.3680 sy         1 AL1       1.290200
     10 O1A         -0.3730    -0.5300    -2.4630 o          1 AL1      -0.508300
     11 O2A         -2.3330    -0.5250    -0.8720 o          1 AL1      -0.508300
     12 S2           1.7880     0.0000     0.0000 ss         1 AL1       0.135200
     13 C6           2.0160     0.0000     1.7490 cc         1 AL1      -0.154600
     14 C5           0.7560     0.0090     2.2640 cd         1 AL1      -0.052300
     15 C4          -0.2780     0.0040     1.3230 cd         1 AL1      -0.011000
     16 N8           2.9390     0.1320     4.2630 nh         1 AL1      -0.672900
     17 S7           3.4940    -0.0190     2.6870 sy         1 AL1       1.420200
     18 O3B          4.1790     1.1880     2.3840 o          1 AL1      -0.581800
     19 O4B          4.0240    -1.3330     2.5770 o          1 AL1      -0.581800
     20 C17          3.6200     0.8730     5.2310 ca         1 AL1       0.176600
     21 C18          2.9790     1.9190     5.8840 ca         1 AL1      -0.177000
     22 H91          1.4570    -0.4490     5.6020 h1         1 AL1       0.083700
     23 H92          1.7880    -1.6000     4.2300 h1         1 AL1       0.083700
     24 H101         0.3780     1.0570     4.0810 hc         1 AL1       0.079700
     25 H102        -0.3820    -0.5340     3.9830 hc         1 AL1       0.079700
     26 H19          3.1530     3.4670     7.3500 ha         1 AL1       0.141000
     27 H20          5.4900     2.9210     7.9060 ha         1 AL1       0.155000
     28 H22          5.4390    -0.2460     5.0310 ha         1 AL1       0.155000
     29 H241         6.6710     1.8180     8.6910 h1         1 AL1       0.050367
     30 H242         8.3390     1.7560     8.1050 h1         1 AL1       0.050367
     31 H243         7.2050     2.9310     7.4240 h1         1 AL1       0.050367
     32 HNL1        -1.8310     2.0400    -0.9690 hn         1 AL1       0.494800
     33 HNL2        -2.0540     1.6130    -2.5300 hn         1 AL1       0.494800
     34 H4          -1.3090     0.0020     1.6570 ha         1 AL1       0.162000
     35 H18          1.9510     2.1590     5.6430 ha         1 AL1       0.126000
     36 N21         -1.4210     1.5780    -1.7560 nz         1 AL1      -0.809500
     37 H213        -0.5640     2.0390    -1.9910 hn         1 AL1       0.494800
     38 O23          6.8990     1.0050     6.8120 os         1 AL1      -0.287900
@<TRIPOS>BOND
     1     1     9 1
     2     1    12 1
     3     1    15 2
     4     2     3 1
     5     2    16 1
     6     2    22 1
     7     2    23 1
     8     3    14 1
     9     3    24 1
    10     3    25 1
    11     4     5 ar
    12     4    21 ar
    13     4    26 1
    14     5     6 ar
    15     5    27 1
    16     6     7 ar
    17     6    38 1
    18     7    20 ar
    19     7    28 1
    20     8    38 1
    21     8    29 1
    22     8    30 1
    23     8    31 1
    24    36     9 1
    25    36    32 1
    26    36    33 1
    27     9    10 2
    28     9    11 2
    29    12    13 1
    30    13    14 2
    31    13    17 1
    32    14    15 1
    33    15    34 1
    34    16    17 1
    35    16    20 1
    36    17    18 2
    37    17    19 2
    38    20    21 ar
    39    21    35 1
    40    37    36 1
@<TRIPOS>SUBSTRUCTURE
     1 AL1         1 TEMP              0 ****  ****    0 ROOT
