@<TRIPOS>MOLECULE
AL1
   38    40     1     0     0
SMALL
bcc


@<TRIPOS>ATOM
      1 C3           0.0000     0.0000     0.0000 cc         1 AL1      -0.148600
      2 C9           1.6730    -0.5710     4.5480 c3         1 AL1       0.221800
      3 C10          0.5170     0.0300     3.7650 c3         1 AL1       0.004900
      4 C19          3.6530     2.6520     6.8420 ca         1 AL1      -0.031000
      5 C20          4.9650     2.3460     7.1520 ca         1 AL1      -0.218000
      6 C21          5.6090     1.3030     6.5040 ca         1 AL1       0.168100
      7 C22          4.9380     0.5690     5.5390 ca         1 AL1      -0.153000
      8 C24          7.3070     1.9280     7.8220 c3         1 AL1       0.217700
      9 S1          -1.1100    -0.0020    -1.3680 sy         1 AL1       0.994200
     10 O1A         -0.3730    -0.5300    -2.4630 o          1 AL1      -0.483300
     11 O2A         -2.3330    -0.5250    -0.8720 o          1 AL1      -0.483300
     12 S2           1.7880     0.0000     0.0000 ss         1 AL1      -0.060800
     13 C6           2.0160     0.0000     1.7490 cc         1 AL1       0.088400
     14 C5           0.7560     0.0090     2.2640 cd         1 AL1      -0.075300
     15 C4          -0.2780     0.0040     1.3230 cd         1 AL1       0.041000
     16 N8           2.9390     0.1320     4.2630 nh         1 AL1      -0.358900
     17 S7           3.4940    -0.0190     2.6870 sy         1 AL1       1.066200
     18 O3B          4.1790     1.1880     2.3840 o          1 AL1      -0.534300
     19 O4B          4.0240    -1.3330     2.5770 o          1 AL1      -0.534300
     20 C17          3.6200     0.8730     5.2310 ca         1 AL1       0.108600
     21 C18          2.9790     1.9190     5.8840 ca         1 AL1      -0.167000
     22 H91          1.4570    -0.4490     5.6020 h1         1 AL1       0.043700
     23 H92          1.7880    -1.6000     4.2300 h1         1 AL1       0.043700
     24 H101         0.3780     1.0570     4.0810 hc         1 AL1       0.042200
     25 H102        -0.3820    -0.5340     3.9830 hc         1 AL1       0.042200
     26 H19          3.1530     3.4670     7.3500 ha         1 AL1       0.105000
     27 H20          5.4900     2.9210     7.9060 ha         1 AL1       0.142000
     28 H22          5.4390    -0.2460     5.0310 ha         1 AL1       0.130000
     29 H241         6.6710     1.8180     8.6910 h1         1 AL1       0.006700
     30 H242         8.3390     1.7560     8.1050 h1         1 AL1       0.006700
     31 H243         7.2050     2.9310     7.4240 h1         1 AL1       0.006700
     32 HNL1        -1.8310     2.0400    -0.9690 hn         1 AL1       0.315467
     33 HNL2        -2.0540     1.6130    -2.5300 hn         1 AL1       0.315467
     34 H4          -1.3090     0.0020     1.6570 ha         1 AL1       0.126000
     35 H18          1.9510     2.1590     5.6430 ha         1 AL1       0.101000
     36 N21         -1.4210     1.5780    -1.7560 nz         1 AL1      -0.128500
     37 H213        -0.5640     2.0390    -1.9910 hn         1 AL1       0.315467
     38 O23          6.8990     1.0050     6.8120 os         1 AL1      -0.275900
@<TRIPOS>BOND
     1     1     9 1   
     2     1    12 1   
     3     1    15 2   
     4     2     3 1   
     5     2    16 1   
     6     2    22 1   
     7     2    23 1   
     8     3    14 1   
     9     3    24 1   
    10     3    25 1   
    11     4     5 ar  
    12     4    21 ar  
    13     4    26 1   
    14     5     6 ar  
    15     5    27 1   
    16     6     7 ar  
    17     6    38 1   
    18     7    20 ar  
    19     7    28 1   
    20     8    29 1   
    21     8    30 1   
    22     8    31 1   
    23     8    38 1   
    24     9    10 2   
    25     9    11 2   
    26     9    36 1   
    27    12    13 1   
    28    13    14 2   
    29    13    17 1   
    30    14    15 1   
    31    15    34 1   
    32    16    17 1   
    33    16    20 1   
    34    17    18 2   
    35    17    19 2   
    36    20    21 ar  
    37    21    35 1   
    38    32    36 1   
    39    33    36 1   
    40    36    37 1   
@<TRIPOS>SUBSTRUCTURE
     1 AL1         1 TEMP              0 ****  ****    0 ROOT
