@<TRIPOS>MOLECULE
AL2
   39    41     1     0     0
SMALL
bcc


@<TRIPOS>ATOM
      1 C3           0.0000     0.0000     0.0000 cc         1 AL2      -0.150600
      2 O5           4.1030     0.7210     0.1770 oh         1 AL2      -0.570800
      3 C9           4.1040     0.5880     2.5720 c3         1 AL2       0.188800
      4 C10          3.5780    -0.0180     1.2810 c3         1 AL2       0.225400
      5 C11          4.3780    -0.8510     4.6220 ca         1 AL2       0.068600
      6 C12          4.0360    -0.9620     5.9650 ca         1 AL2      -0.103000
      7 C13          4.8370    -1.6900     6.8220 ca         1 AL2      -0.154000
      8 C14          5.9800    -2.3120     6.3440 ca         1 AL2       0.130100
      9 C15          6.3240    -2.1970     5.0050 ca         1 AL2      -0.154000
     10 C16          5.5230    -1.4730     4.1450 ca         1 AL2      -0.103000
     11 O1A         -0.3740     0.5200    -2.4640 o          1 AL2      -0.482300
     12 O2A         -2.3340     0.5230    -0.8740 o          1 AL2      -0.482300
     13 N21         -1.4220    -1.5840    -1.7480 nz         1 AL2      -0.129500
     14 S1          -1.1110    -0.0030    -1.3680 sy         1 AL2       0.994200
     15 C4           1.3520     0.0000     0.0000 cd         1 AL2       0.061000
     16 C5           2.0600     0.0000     1.2060 cd         1 AL2      -0.090300
     17 C6           1.2970     0.0110     2.3330 cc         1 AL2       0.092400
     18 S2          -0.3680     0.0050     1.7490 ss         1 AL2      -0.060800
     19 S7           1.9110     0.0350     3.9720 sy         1 AL2       1.065200
     20 O3B          1.6880     1.3500     4.4650 o          1 AL2      -0.535300
     21 O4B          1.4760    -1.1700     4.5840 o          1 AL2      -0.535300
     22 N8           3.5670    -0.1130     3.7530 nh         1 AL2      -0.337900
     23 O6           6.7680    -3.0300     7.1890 os         1 AL2      -0.273900
     24 C17          7.8530    -3.5390     6.4100 c3         1 AL2       0.218700
     25 HO5          4.7830     0.2210    -0.2420 ho         1 AL2       0.407000
     26 H91          5.1810     0.4700     2.5780 h1         1 AL2       0.053700
     27 H92          3.7660     1.6170     2.6160 h1         1 AL2       0.053700
     28 H10          3.9180    -1.0440     1.2150 h1         1 AL2       0.019700
     29 H12          3.1740    -0.4320     6.3490 ha         1 AL2       0.116500
     30 H13          4.5780    -1.7670     7.8710 ha         1 AL2       0.132000
     31 H15          7.2250    -2.6720     4.6350 ha         1 AL2       0.132000
     32 H16          5.9660    -1.6940     3.1820 ha         1 AL2       0.116500
     33 HNL1        -0.5710    -2.0360    -2.0190 hn         1 AL2       0.315467
     34 HNL2        -2.0750    -1.6230    -2.5050 hn         1 AL2       0.315467
     35 H4           1.8910    -0.0000    -0.9400 ha         1 AL2       0.132000
     36 H171         8.4080    -2.7130     5.9820 h1         1 AL2       0.004367
     37 H172         8.5080    -4.1250     7.0430 h1         1 AL2       0.004367
     38 H173         7.4650    -4.1640     5.6150 h1         1 AL2       0.004367
     39 H213        -1.8050    -2.0510    -0.9500 hn         1 AL2       0.315467
@<TRIPOS>BOND
     1     1    14 1   
     2     1    15 2   
     3     1    18 1   
     4     2     4 1   
     5     2    25 1   
     6     3     4 1   
     7     3    22 1   
     8     3    26 1   
     9     3    27 1   
    10     4    16 1   
    11     4    28 1   
    12     5     6 ar  
    13     5    10 ar  
    14     5    22 1   
    15     6     7 ar  
    16     6    29 1   
    17     7     8 ar  
    18     7    30 1   
    19     8     9 ar  
    20     8    23 1   
    21     9    10 ar  
    22     9    31 1   
    23    10    32 1   
    24    11    14 2   
    25    12    14 2   
    26    13    14 1   
    27    13    33 1   
    28    13    34 1   
    29    13    39 1   
    30    15    16 1   
    31    15    35 1   
    32    16    17 2   
    33    17    18 1   
    34    17    19 1   
    35    19    20 2   
    36    19    21 2   
    37    19    22 1   
    38    23    24 1   
    39    24    36 1   
    40    24    37 1   
    41    24    38 1   
@<TRIPOS>SUBSTRUCTURE
     1 AL2         1 TEMP              0 ****  ****    0 ROOT
