@<TRIPOS>MOLECULE
AL3
   35    37     1     0     0
SMALL
bcc


@<TRIPOS>ATOM
      1 C3           0.0000     0.0000     0.0000 cc         1 AL3      -0.152600
      2 O5           4.1120     0.7050     0.1800 oh         1 AL3      -0.571800
      3 C9           4.1100     0.5660     2.5740 c3         1 AL3       0.206800
      4 C10          3.5790    -0.0310     1.2810 c3         1 AL3       0.227400
      5 C12          4.9200    -0.0180     5.7650 cc         1 AL3      -0.009400
      6 C13          4.3610     0.2570     6.9690 cd         1 AL3      -0.096000
      7 C14          5.0160     1.1130     7.8320 cd         1 AL3      -0.154000
      8 C15          6.1940     1.6610     7.4460 cc         1 AL3       0.082900
      9 O1A         -0.3750     0.5290    -2.4630 o          1 AL3      -0.482300
     10 O2A         -2.3350     0.5190    -0.8720 o          1 AL3      -0.482300
     11 N21         -1.4160    -1.5810    -1.7560 nz         1 AL3      -0.130500
     12 S1          -1.1100    -0.0010    -1.3680 sy         1 AL3       0.993200
     13 C4           1.3530     0.0000     0.0000 cd         1 AL3       0.061000
     14 C5           2.0600     0.0000     1.2050 cd         1 AL3      -0.089300
     15 C6           1.2970     0.0060     2.3330 cc         1 AL3       0.098400
     16 S2          -0.3670    -0.0060     1.7490 ss         1 AL3      -0.062800
     17 S7           1.9130     0.0290     3.9750 sy         1 AL3       1.065200
     18 O3B          1.7000     1.3460     4.4650 o          1 AL3      -0.539300
     19 O4B          1.4700    -1.1730     4.5890 o          1 AL3      -0.539300
     20 N8           3.5670    -0.1330     3.7530 n3         1 AL3      -0.551500
     21 S16          6.4130     0.9590     5.8200 ss         1 AL3      -0.321800
     22 HO5          4.8320     0.2280    -0.1990 ho         1 AL3       0.408000
     23 H91          5.1860     0.4380     2.5790 h1         1 AL3       0.049700
     24 H92          3.7820     1.5980     2.6210 h1         1 AL3       0.049700
     25 H10          3.9090    -1.0600     1.2120 h1         1 AL3       0.015700
     26 H111         4.8780    -1.5290     3.9060 h1         1 AL3       0.033700
     27 H112         3.7420    -1.5910     5.1790 h1         1 AL3       0.033700
     28 H13          3.4170    -0.1940     7.2520 ha         1 AL3       0.117000
     29 H14          4.5920     1.3480     8.8010 ha         1 AL3       0.124000
     30 H15          6.8370     2.3460     7.9860 h4         1 AL3       0.167000
     31 HNL1        -0.5520    -2.0810    -1.8280 hn         1 AL3       0.315133
     32 HNL2        -1.8980    -1.6220    -2.6320 hn         1 AL3       0.315133
     33 H4           1.8920     0.0000    -0.9400 ha         1 AL3       0.133000
     34 C11          4.4110    -0.9110     4.6640 c3         1 AL3       0.370100
     35 H213        -1.9460    -2.0080    -1.0220 hn         1 AL3       0.315133
@<TRIPOS>BOND
     1     1    12 1   
     2     1    13 2   
     3     1    16 1   
     4     2     4 1   
     5     2    22 1   
     6     3     4 1   
     7     3    20 1   
     8     3    23 1   
     9     3    24 1   
    10     4    14 1   
    11     4    25 1   
    12     5     6 2   
    13     5    21 1   
    14     5    34 1   
    15     6     7 1   
    16     6    28 1   
    17     7     8 2   
    18     7    29 1   
    19     8    21 1   
    20     8    30 1   
    21     9    12 2   
    22    10    12 2   
    23    11    12 1   
    24    11    31 1   
    25    11    32 1   
    26    11    35 1   
    27    13    14 1   
    28    13    33 1   
    29    14    15 2   
    30    15    16 1   
    31    15    17 1   
    32    17    18 2   
    33    17    19 2   
    34    17    20 1   
    35    20    34 1   
    36    26    34 1   
    37    27    34 1   
@<TRIPOS>SUBSTRUCTURE
     1 AL3         1 TEMP              0 ****  ****    0 ROOT
