@<TRIPOS>MOLECULE
AL4
   43    40     1     0     0
SMALL
bcc


@<TRIPOS>ATOM
      1 C3          0.1590   -0.1690    0.1340 c2        1 AL4     -1.263000
      2 C9          4.2840    1.2220    2.3440 c3        1 AL4     -0.042000
      3 C10         3.5940    0.8590    1.0660 c2        1 AL4     -0.451000
      4 C12         3.8270   -1.4540    5.0030 c3        1 AL4     -0.259000
      5 C14         4.7530    1.9110    7.4390 c1        1 AL4      0.329000
      6 O1A        -2.1380   -0.1120   -0.8760 o         1 AL4     -0.822500
      7 O2A        -0.2160   -0.3470   -2.3330 o         1 AL4     -0.822500
      8 N21        -0.9650   -2.3490   -0.9720 n4        1 AL4     -0.518000
      9 S1         -0.8310   -0.4600   -1.1090 s6        1 AL4      2.851000
     10 C4          1.5210    0.0790   -0.1410 c2        1 AL4     -0.141000
     11 C5          2.2510    0.5030    1.0120 c2        1 AL4      0.183000
     12 C6          1.3800    0.5350    2.1580 c2        1 AL4     -1.364000
     13 S2         -0.1310    0.0710    1.7240 ss        1 AL4      1.053000
     14 S7          1.8630    1.0670    3.5970 s6        1 AL4      2.864000
     15 O3B         1.3400    0.3270    4.6350 o         1 AL4     -0.843500
     16 O4B         1.9670    2.4350    3.7010 o         1 AL4     -0.843500
     17 N8          3.6810    0.5790    3.5370 n4        1 AL4     -0.432000
     18 N15         4.4060    0.9560   -0.1360 n4        1 AL4      0.222000
     19 O13         4.4970    1.5900    6.3330 o         1 AL4     -0.328000
     20 C17         5.9550   -1.0700   -0.6060 c1        1 AL4      0.044000
     21 H91         4.1450    0.9970    4.3580 hn        1 AL4      0.279000
     22 H92         5.3830    0.9570    2.2990 hx        1 AL4      0.147000
     23 H10         4.2080    2.3450    2.5070 hx        1 AL4      0.147000
     24 H111        4.9710   -1.0930    3.2010 hx        1 AL4      0.122000
     25 H112        3.1940   -1.3850    2.9130 hx        1 AL4      0.122000
     26 H121        4.1200   -2.5330    4.9640 hc        1 AL4      0.125333
     27 H122        2.7830   -1.3850    5.4000 hc        1 AL4      0.125333
     28 H141        4.5140   -0.9290    5.7150 hc        1 AL4      0.125333
     29 H142        5.2650   -0.4460    7.8380 ha        1 AL4      0.002833
     30 H143        5.4260   -0.3280    8.4860 ha        1 AL4      0.002833
     31 H161        6.2650    3.6790    0.9970 ha        1 AL4      0.002833
     32 H162        5.9220    3.1170    1.1650 ha        1 AL4      0.002833
     33 HNL1       -0.3940   -2.7510   -0.2340 hn        1 AL4      0.261333
     34 HNL2       -0.6820   -2.7870   -1.8510 hn        1 AL4      0.261333
     35 H4          1.9510   -0.0200   -1.1460 ha        1 AL4      0.183000
     36 HNF         3.7880    1.0880   -0.9580 hn        1 AL4      0.270500
     37 H171        2.9350    1.0620   -2.7620 ha        1 AL4      0.002833
     38 H172        2.8080    1.2100   -3.4130 ha        1 AL4      0.002833
     39 H173        6.6110   -1.8880   -0.8210 ha        1 AL4      0.285000
     40 C11         3.9360   -0.8870    3.6000 c3        1 AL4     -0.105000
     41 C16         5.2340   -0.1410   -0.3840 c1        1 AL4     -0.315000
     42 H213       -1.9350   -2.6260   -0.7970 hn        1 AL4      0.261333
     43 H152        5.0130    1.7960   -0.0420 hn        1 AL4      0.270500
@<TRIPOS>BOND
     1    1    9 1
     2    1   10 1
     3    1   13 1
     4    2    3 1
     5    2   17 1
     6    2   22 1
     7    2   23 1
     8    3   11 1
     9    3   18 1
    10    4   26 1
    11    4   27 1
    12    4   28 1
    13    4   40 1
    14    5   19 1
    15    6    9 1
    16    7    9 1
    17    8    9 1
    18    8   33 1
    19    8   34 1
    20    8   42 1
    21   10   11 1
    22   10   35 1
    23   11   12 1
    24   12   13 1
    25   12   14 1
    26   14   15 1
    27   14   16 1
    28   14   17 1
    29   17   21 1
    30   17   40 1
    31   18   36 1
    32   18   41 1
    33   18   43 1
    34   20   39 1
    35   20   41 1
    36   24   40 1
    37   25   40 1
    38   29   30 1
    39   31   32 1
    40   37   38 1
@<TRIPOS>SUBSTRUCTURE
     1 AL4         1 TEMP              0 ****  ****    0 ROOT
