@<TRIPOS>MOLECULE
molecule
   36    37     1     0     0
SMALL
bcc


@<TRIPOS>ATOM
      1 C3           0.0000     0.0000     0.0000 cc         1 AL5      -0.338600
      2 C9           0.8770     2.4520     4.4930 c3         1 AL5       0.283100
      3 C10          1.2900     3.8220     4.9640 ca         1 AL5      -0.131300
      4 C11          1.7230     4.7640     4.0520 ca         1 AL5      -0.105500
      5 C12          2.1020     6.0220     4.4830 ca         1 AL5      -0.126000
      6 C13          2.0460     6.3370     5.8280 ca         1 AL5      -0.058300
      7 C14          1.6180     5.3940     6.7410 ca         1 AL5      -0.126000
      8 C15          1.2350     4.1370     6.3090 ca         1 AL5      -0.105500
      9 C16          2.4580     7.7090     6.2980 c3         1 AL5      -0.053800
     10 O2A         -2.3320     0.5310    -0.8730 o          1 AL5      -0.509800
     11 O1A         -0.3710     0.5350    -2.4620 o          1 AL5      -0.509800
     12 N21         -1.4210    -1.5720    -1.7600 nz         1 AL5      -0.810500
     13 S1          -1.1080     0.0070    -1.3700 sy         1 AL5       1.292200
     14 C4           1.3560     0.0000     0.0000 cd         1 AL5      -0.015000
     15 C5           2.0250     0.0000     1.2090 cd         1 AL5      -0.095000
     16 C6           1.3060    -0.0090     2.3580 cc         1 AL5      -0.132600
     17 S2          -0.3700    -0.0050     1.7460 ss         1 AL5       0.102200
     18 S7           1.8790    -0.0160     4.0250 sy         1 AL5       1.420200
     19 O3B          3.1980    -0.5420     3.9770 o          1 AL5      -0.598800
     20 O4B          0.8110    -0.5430     4.7970 o          1 AL5      -0.598800
     21 N8           2.0400     1.5620     4.4980 n7         1 AL5      -0.900100
     22 H91          0.1170     2.0570     5.1560 h1         1 AL5       0.047200
     23 H92          0.4800     2.5210     3.4880 h1         1 AL5       0.047200
     24 H11          1.7670     4.5170     2.9980 ha         1 AL5       0.130500
     25 H12          2.4400     6.7620     3.7670 ha         1 AL5       0.141000
     26 H14          1.5740     5.6410     7.7950 ha         1 AL5       0.141000
     27 H15          0.8990     3.3970     7.0250 ha         1 AL5       0.130500
     28 H161         3.4070     7.6430     6.8160 hc         1 AL5       0.051367
     29 H162         1.7060     8.1000     6.9720 hc         1 AL5       0.051367
     30 H163         2.5570     8.3680     5.4440 hc         1 AL5       0.051367
     31 HNL1        -2.0170    -1.9760    -1.0640 hn         1 AL5       0.495467
     32 HNL2        -0.5610    -2.0830    -1.8000 hn         1 AL5       0.495467
     33 H4           1.9050     0.0060    -0.9330 ha         1 AL5       0.168000
     34 H5           3.1080     0.0000     1.2380 ha         1 AL5       0.192000
     35 HN8          2.9330     1.9090     4.7870 hn         1 AL5       0.477800
     36 H213        -1.8850    -1.6120    -2.6460 hn         1 AL5       0.495467
@<TRIPOS>BOND
     1     1    13 1
     2     1    14 2
     3     1    17 1
     4     2     3 1
     5     2    21 1
     6     2    22 1
     7     2    23 1
     8     3     4 ar
     9     3     8 ar
    10     4     5 ar
    11     4    24 1
    12     5     6 ar
    13     5    25 1
    14     6     7 ar
    15     6     9 1
    16     7     8 ar
    17     7    26 1
    18     8    27 1
    19     9    28 1
    20     9    29 1
    21     9    30 1
    22    10    13 2
    23    11    13 2
    24    12    13 1
    25    12    31 1
    26    12    32 1
    27    14    15 1
    28    14    33 1
    29    15    16 2
    30    15    34 1
    31    16    17 1
    32    16    18 1
    33    18    19 2
    34    18    20 2
    35    18    21 1
    36    21    35 1
    37    36    12 1
@<TRIPOS>SUBSTRUCTURE
     1 AL5         1 TEMP              0 ****  ****    0 ROOT
