@<TRIPOS>MOLECULE
AL6
   36    38     1     0     0
SMALL
bcc


@<TRIPOS>ATOM
      1 C3           0.0000     0.0000     0.0000 cc         1 AL6      -0.148600
      2 O5           6.6140    -3.9370     4.9890 os         1 AL6      -0.281900
      3 C9           4.1260    -0.2220     2.5430 c2         1 AL6       0.084000
      4 C10          3.5370    -0.0010     1.3800 cf         1 AL6      -0.211200
      5 C11          4.1280    -1.2880     4.7240 ca         1 AL6       0.078600
      6 C12          3.8260    -1.0870     6.0650 ca         1 AL6      -0.156000
      7 C13          4.4550    -1.8410     7.0350 ca         1 AL6      -0.012000
      8 C14          5.3880    -2.7950     6.6770 ca         1 AL6      -0.219000
      9 C15          5.6960    -2.9990     5.3400 ca         1 AL6       0.167100
     10 C16          5.0690    -2.2420     4.3620 ca         1 AL6      -0.175000
     11 O1A         -2.3290     0.5210    -0.8840 o          1 AL6      -0.484800
     12 O2A         -0.3640     0.5100    -2.4680 o          1 AL6      -0.484800
     13 N21         -1.4150    -1.5900    -1.7470 nz         1 AL6      -0.130500
     14 S1          -1.1050    -0.0070    -1.3720 sy         1 AL6       0.995200
     15 C4           1.3540     0.0000     0.0000 cd         1 AL6       0.051000
     16 C5           2.0560     0.0000     1.2100 cd         1 AL6       0.002200
     17 C6           1.2710     0.0190     2.3470 cc         1 AL6       0.027400
     18 S2          -0.3800     0.0120     1.7480 ss         1 AL6      -0.053800
     19 S7           1.9310     0.0450     3.9650 sy         1 AL6       1.074200
     20 O3B          1.2380    -0.9530     4.6990 o          1 AL6      -0.533300
     21 O4B          2.0560     1.4140     4.3260 o          1 AL6      -0.533300
     22 N8           3.4900    -0.5270     3.7420 nh         1 AL6      -0.135700
     23 C17          7.0770    -4.5350     6.2000 c3         1 AL6       0.217700
     24 H9           5.2070    -0.1600     2.5640 h4         1 AL6       0.131000
     25 H10          4.1570     0.1880     0.5130 ha         1 AL6       0.137000
     26 H12          3.0930    -0.3410     6.3490 ha         1 AL6       0.121000
     27 H13          4.2180    -1.6830     8.0810 ha         1 AL6       0.113000
     28 H14          5.8800    -3.3850     7.4410 ha         1 AL6       0.143000
     29 H16          5.3070    -2.4010     3.3170 ha         1 AL6       0.121000
     30 HNL1        -1.9900    -1.9950    -1.0350 hn         1 AL6       0.315800
     31 HNL2        -0.5520    -2.0940    -1.8060 hn         1 AL6       0.315800
     32 H4           1.8950    -0.0000    -0.9390 ha         1 AL6       0.127000
     33 H171         7.8150    -5.2940     5.9690 h1         1 AL6       0.008033
     34 H172         7.5240    -3.7760     6.8300 h1         1 AL6       0.008033
     35 H173         6.2420    -4.9900     6.7200 h1         1 AL6       0.008033
     36 H213        -1.8830    -1.6380    -2.6300 hn         1 AL6       0.315800
@<TRIPOS>BOND
     1     1    14 1   
     2     1    15 2   
     3     1    18 1   
     4     2     9 1   
     5     2    23 1   
     6     3     4 2   
     7     3    22 1   
     8     3    24 1   
     9     4    16 1   
    10     4    25 1   
    11     5     6 ar  
    12     5    10 ar  
    13     5    22 1   
    14     6     7 ar  
    15     6    26 1   
    16     7     8 ar  
    17     7    27 1   
    18     8     9 ar  
    19     8    28 1   
    20     9    10 ar  
    21    10    29 1   
    22    11    14 2   
    23    12    14 2   
    24    13    14 1   
    25    13    30 1   
    26    13    31 1   
    27    13    36 1   
    28    15    16 1   
    29    15    32 1   
    30    16    17 2   
    31    17    18 1   
    32    17    19 1   
    33    19    20 2   
    34    19    21 2   
    35    19    22 1   
    36    23    33 1   
    37    23    34 1   
    38    23    35 1   
@<TRIPOS>SUBSTRUCTURE
     1 AL6         1 TEMP              0 ****  ****    0 ROOT
