@<TRIPOS>MOLECULE
AL7
   43    45     1     0     0
SMALL
bcc


@<TRIPOS>ATOM
      1 C3           0.0000     0.0000     0.0000 cc         1 AL7      -0.152600
      2 C9           1.6720     0.5390     4.5540 c3         1 AL7       0.174800
      3 C10          0.5170    -0.0550     3.7660 c3         1 AL7       0.131800
      4 C19          3.5940    -2.2860     7.1870 ca         1 AL7      -0.016000
      5 C20          4.9700    -2.3960     7.1300 ca         1 AL7      -0.233000
      6 C21          5.6770    -1.7630     6.1190 ca         1 AL7       0.182100
      7 C22          5.0020    -1.0240     5.1600 ca         1 AL7      -0.172000
      8 C24          7.4230    -2.6920     7.1680 c3         1 AL7       0.216700
      9 S1          -1.1100     0.0040    -1.3680 sy         1 AL7       0.994200
     10 O1A         -0.3730    -0.5170    -2.4650 o          1 AL7      -0.483800
     11 O2A         -2.3330    -0.5240    -0.8750 o          1 AL7      -0.483800
     12 S2           1.7870     0.0000     0.0000 ss         1 AL7      -0.067800
     13 C6           2.0160     0.0000     1.7500 cc         1 AL7       0.082400
     14 C5           0.7570    -0.0130     2.2640 cd         1 AL7      -0.067300
     15 C4          -0.2780    -0.0060     1.3240 cd         1 AL7       0.062000
     16 N8           2.9390    -0.1580     4.2610 nh         1 AL7      -0.334900
     17 S7           3.4960     0.0160     2.6900 sy         1 AL7       1.067200
     18 O3B          4.0210     1.3340     2.5930 o          1 AL7      -0.533800
     19 O4B          4.1910    -1.1820     2.3740 o          1 AL7      -0.533800
     20 N15         -0.7060     0.6980     4.0720 n7         1 AL7      -0.594200
     21 C17          3.6210    -0.9090     5.2210 ca         1 AL7       0.120600
     22 C18          2.9180    -1.5430     6.2370 ca         1 AL7      -0.196000
     23 H91          1.7840     1.5720     4.2470 h1         1 AL7       0.048200
     24 H92          1.4560     0.4050     5.6070 h1         1 AL7       0.048200
     25 H10          0.3830    -1.0870     4.0680 h1         1 AL7       0.076700
     26 H161        -2.3130     0.1330     5.3500 h1         1 AL7       0.018367
     27 H162        -0.8070     0.6510     6.1990 h1         1 AL7       0.018367
     28 H163        -0.8020    -0.8260     5.1730 h1         1 AL7       0.018367
     29 H19          3.0440    -2.7810     7.9780 ha         1 AL7       0.106000
     30 H20          5.4970    -2.9760     7.8780 ha         1 AL7       0.143000
     31 H22          5.5540    -0.5290     4.3700 ha         1 AL7       0.131000
     32 H241         6.9100    -3.6440     7.1120 h1         1 AL7       0.006700
     33 H242         7.1420    -2.1830     8.0830 h1         1 AL7       0.006700
     34 H243         8.4930    -2.8580     7.1610 h1         1 AL7       0.006700
     35 HNL1        -2.1780     1.6270    -2.4030 hn         1 AL7       0.315800
     36 HNL2        -1.6760     2.0830    -0.9160 hn         1 AL7       0.315800
     37 H4          -1.3090    -0.0050     1.6570 ha         1 AL7       0.141000
     38 HNF         -0.4800     1.6660     4.1930 hn         1 AL7       0.261800
     39 H18          1.8390    -1.4560     6.2850 ha         1 AL7       0.104000
     40 C16         -1.2300     0.1560     5.3330 c3         1 AL7       0.162100
     41 N21         -1.4240     1.5850    -1.7460 nz         1 AL7      -0.129500
     42 H213        -0.6020     2.0050    -2.1330 hn         1 AL7       0.315800
     43 O23          7.0310    -1.8740     6.0640 os         1 AL7      -0.275900
@<TRIPOS>BOND
     1     1     9 1   
     2     1    12 1   
     3     1    15 2   
     4     2     3 1   
     5     2    16 1   
     6     2    23 1   
     7     2    24 1   
     8     3    14 1   
     9     3    20 1   
    10     3    25 1   
    11     4     5 ar  
    12     4    22 ar  
    13     4    29 1   
    14     5     6 ar  
    15     5    30 1   
    16     6     7 ar  
    17     6    43 1   
    18     7    21 ar  
    19     7    31 1   
    20     8    32 1   
    21     8    33 1   
    22     8    34 1   
    23     8    43 1   
    24     9    10 2   
    25     9    11 2   
    26     9    41 1   
    27    12    13 1   
    28    13    14 2   
    29    13    17 1   
    30    14    15 1   
    31    15    37 1   
    32    16    17 1   
    33    16    21 1   
    34    17    18 2   
    35    17    19 2   
    36    20    38 1   
    37    20    40 1   
    38    21    22 ar  
    39    22    39 1   
    40    26    40 1   
    41    27    40 1   
    42    28    40 1   
    43    35    41 1   
    44    36    41 1   
    45    41    42 1   
@<TRIPOS>SUBSTRUCTURE
     1 AL7         1 TEMP              0 ****  ****    0 ROOT
