@<TRIPOS>MOLECULE
molecule
   43    45     1     0     0
SMALL
bcc


@<TRIPOS>ATOM
      1 C3           0.0000     0.0000     0.0000 cc         1 AL7      -0.341600
      2 C9           1.6720     0.5390     4.5540 c3         1 AL7       0.193800
      3 C10          0.5170    -0.0550     3.7660 c3         1 AL7       0.168800
      4 C19          3.5940    -2.2860     7.1870 ca         1 AL7      -0.056000
      5 C20          4.9700    -2.3960     7.1300 ca         1 AL7      -0.233000
      6 C21          5.6770    -1.7630     6.1190 ca         1 AL7       0.166100
      7 C22          5.0020    -1.0240     5.1600 ca         1 AL7      -0.189000
      8 C24          7.4230    -2.6920     7.1680 c3         1 AL7       0.102700
      9 S1          -1.1100     0.0040    -1.3680 sy         1 AL7       1.291200
     10 O1A         -0.3730    -0.5170    -2.4650 o          1 AL7      -0.509300
     11 O2A         -2.3330    -0.5240    -0.8750 o          1 AL7      -0.509300
     12 S2           1.7870     0.0000     0.0000 ss         1 AL7       0.125200
     13 C6           2.0160     0.0000     1.7500 cc         1 AL7      -0.160600
     14 C5           0.7570    -0.0130     2.2640 cd         1 AL7      -0.044300
     15 C4          -0.2780    -0.0060     1.3240 cd         1 AL7       0.016000
     16 N8           2.9390    -0.1580     4.2610 nh         1 AL7      -0.659900
     17 S7           3.4960     0.0160     2.6900 sy         1 AL7       1.421200
     18 O3B          4.0210     1.3340     2.5930 o          1 AL7      -0.579800
     19 O4B          4.1910    -1.1820     2.3740 o          1 AL7      -0.579800
     20 N15         -0.7060     0.6980     4.0720 n7         1 AL7      -0.813200
     21 C17          3.6210    -0.9090     5.2210 ca         1 AL7       0.195600
     22 C18          2.9180    -1.5430     6.2370 ca         1 AL7      -0.201000
     23 H91          1.7840     1.5720     4.2470 h1         1 AL7       0.081200
     24 H92          1.4560     0.4050     5.6070 h1         1 AL7       0.081200
     25 H10          0.3830    -1.0870     4.0680 h1         1 AL7       0.105700
     26 H161        -2.3130     0.1330     5.3500 h1         1 AL7       0.052367
     27 H162        -0.8070     0.6510     6.1990 h1         1 AL7       0.052367
     28 H163        -0.8020    -0.8260     5.1730 h1         1 AL7       0.052367
     29 H19          3.0440    -2.7810     7.9780 ha         1 AL7       0.142000
     30 H20          5.4970    -2.9760     7.8780 ha         1 AL7       0.155000
     31 H22          5.5540    -0.5290     4.3700 ha         1 AL7       0.147000
     32 H241         6.9100    -3.6440     7.1120 h1         1 AL7       0.050700
     33 H242         7.1420    -2.1830     8.0830 h1         1 AL7       0.050700
     34 H243         8.4930    -2.8580     7.1610 h1         1 AL7       0.050700
     35 HNL1        -2.1780     1.6270    -2.4030 hn         1 AL7       0.494800
     36 HNL2        -1.6760     2.0830    -0.9160 hn         1 AL7       0.494800
     37 H4          -1.3090    -0.0050     1.6570 ha         1 AL7       0.181000
     38 HNF         -0.4800     1.6660     4.1930 hn         1 AL7       0.355800
     39 H18          1.8390    -1.4560     6.2850 ha         1 AL7       0.124000
     40 C16         -1.2300     0.1560     5.3330 c3         1 AL7       0.127100
     41 N21         -1.4240     1.5850    -1.7460 nz         1 AL7      -0.810500
     42 H213        -0.6020     2.0050    -2.1330 hn         1 AL7       0.494800
     43 O23          7.0310    -1.8740     6.0640 os         1 AL7      -0.286900
@<TRIPOS>BOND
     1     1     9 1
     2     1    12 1
     3     1    15 2
     4     2     3 1
     5     2    16 1
     6     2    23 1
     7     2    24 1
     8     3    14 1
     9     3    20 1
    10     3    25 1
    11    40    20 1
    12    40    26 1
    13    40    27 1
    14    40    28 1
    15     4     5 ar
    16     4    22 ar
    17     4    29 1
    18     5     6 ar
    19     5    30 1
    20     6     7 ar
    21     6    43 1
    22     7    21 ar
    23     7    31 1
    24     8    43 1
    25     8    32 1
    26     8    33 1
    27     8    34 1
    28    41     9 1
    29    41    35 1
    30    41    36 1
    31     9    10 2
    32     9    11 2
    33    12    13 1
    34    13    14 2
    35    13    17 1
    36    14    15 1
    37    15    37 1
    38    16    17 1
    39    16    21 1
    40    17    18 2
    41    17    19 2
    42    20    38 1
    43    21    22 ar
    44    22    39 1
    45    42    41 1
@<TRIPOS>SUBSTRUCTURE
     1 AL7         1 TEMP              0 ****  ****    0 ROOT
