@<TRIPOS>MOLECULE
molecule
   43    45     1     0     0
SMALL
bcc


@<TRIPOS>ATOM
      1 C3           0.0000     0.0000     0.0000 cc         1 AL8      -0.339600
      2 C9           1.6720    -0.5430     4.5530 c3         1 AL8       0.199800
      3 C10          0.5160     0.0500     3.7650 c3         1 AL8       0.168800
      4 C19          5.5900     1.2980     6.5370 ca         1 AL8      -0.064000
      5 C20          4.9790     2.3870     7.1290 ca         1 AL8      -0.214000
      6 C21          3.6870     2.7390     6.7690 ca         1 AL8       0.139100
      7 C22          3.0090     2.0020     5.8120 ca         1 AL8      -0.169000
      8 C24          4.0290     4.3580     8.2780 c3         1 AL8       0.102700
      9 S1          -1.1100    -0.0040    -1.3690 sy         1 AL8       1.289200
     10 O1A         -0.3730    -0.5330    -2.4620 o          1 AL8      -0.508800
     11 O2A         -2.3340    -0.5280    -0.8720 o          1 AL8      -0.508800
     12 S2           1.7870     0.0000     0.0000 ss         1 AL8       0.119200
     13 C6           2.0160     0.0000     1.7490 cc         1 AL8      -0.158600
     14 C5           0.7570     0.0100     2.2630 cd         1 AL8      -0.044300
     15 C4          -0.2790     0.0030     1.3230 cd         1 AL8       0.017000
     16 N8           2.9370     0.1570     4.2620 nh         1 AL8      -0.672900
     17 S7           3.4970    -0.0160     2.6890 sy         1 AL8       1.423200
     18 O3B          4.1870     1.1840     2.3740 o          1 AL8      -0.583300
     19 O4B          4.0240    -1.3320     2.5920 o          1 AL8      -0.583300
     20 N15         -0.7050    -0.7050     4.0720 n7         1 AL8      -0.811200
     21 C17          3.6200     0.9060     5.2230 ca         1 AL8       0.172600
     22 C18          4.9150     0.5560     5.5860 ca         1 AL8      -0.171000
     23 H91          1.4560    -0.4100     5.6070 h1         1 AL8       0.082700
     24 H92          1.7860    -1.5750     4.2460 h1         1 AL8       0.082700
     25 H10          0.3820     1.0820     4.0670 h1         1 AL8       0.093700
     26 H161        -0.9550    -0.5500     6.1780 h1         1 AL8       0.049033
     27 H162        -2.3790    -0.0350     5.2000 h1         1 AL8       0.049033
     28 H163        -0.8390     0.8850     5.1040 h1         1 AL8       0.049033
     29 H19          6.6000     1.0240     6.8200 ha         1 AL8       0.148000
     30 H20          5.5100     2.9650     7.8760 ha         1 AL8       0.155000
     31 H22          2.0000     2.2770     5.5300 ha         1 AL8       0.137000
     32 H241         4.9240     4.6590     7.7470 h1         1 AL8       0.050367
     33 H242         4.2790     3.5900     9.0000 h1         1 AL8       0.050367
     34 H243         3.6100     5.2140     8.7930 h1         1 AL8       0.050367
     35 HNL1        -2.1780     1.6150    -2.4110 hn         1 AL8       0.494467
     36 HNL2        -1.6690     2.0800    -0.9290 hn         1 AL8       0.494467
     37 H4          -1.3100     0.0010     1.6570 ha         1 AL8       0.181000
     38 HNF         -0.4680    -1.6560     4.2750 hn         1 AL8       0.367800
     39 H18          5.3950    -0.2980     5.1250 ha         1 AL8       0.144000
     40 C16         -1.2980    -0.0830     5.2620 c3         1 AL8       0.129100
     41 N21         -1.4210     1.5760    -1.7570 nz         1 AL8      -0.809500
     42 H213        -0.6090     1.9830    -2.1750 hn         1 AL8       0.494467
     43 O23          3.0880     3.8110     7.3530 os         1 AL8      -0.297900
@<TRIPOS>BOND
     1     1     9 1
     2     1    12 1
     3     1    15 2
     4     2     3 1
     5     2    16 1
     6     2    23 1
     7     2    24 1
     8     3    14 1
     9     3    20 1
    10     3    25 1
    11    40    20 1
    12    40    26 1
    13    40    27 1
    14    40    28 1
    15     4     5 ar
    16     4    22 ar
    17     4    29 1
    18     5     6 ar
    19     5    30 1
    20     6     7 ar
    21     6    43 1
    22     7    21 ar
    23     7    31 1
    24     8    43 1
    25     8    32 1
    26     8    33 1
    27     8    34 1
    28    41     9 1
    29    41    35 1
    30    41    36 1
    31     9    10 2
    32     9    11 2
    33    12    13 1
    34    13    14 2
    35    13    17 1
    36    14    15 1
    37    15    37 1
    38    16    17 1
    39    16    21 1
    40    17    18 2
    41    17    19 2
    42    20    38 1
    43    21    22 ar
    44    22    39 1
    45    42    41 1
@<TRIPOS>SUBSTRUCTURE
     1 AL8         1 TEMP              0 ****  ****    0 ROOT
