@<TRIPOS>MOLECULE
AL9
   37    38     1     0     0
SMALL
bcc


@<TRIPOS>ATOM
      1 C3           0.0000     0.0000     0.0000 cc         1 AL9      -0.152600
      2 C9           0.8760     2.4510     4.4930 c3         1 AL9       0.297100
      3 C10          1.2890     3.8210     4.9640 ca         1 AL9      -0.187300
      4 C11          1.7220     4.7630     4.0510 ca         1 AL9      -0.035500
      5 C12          2.1010     6.0210     4.4800 ca         1 AL9      -0.181000
      6 C13          2.0460     6.3370     5.8290 ca         1 AL9       0.160100
      7 C14          1.6160     5.3890     6.7450 ca         1 AL9      -0.181000
      8 C15          1.2330     4.1350     6.3090 ca         1 AL9      -0.035500
      9 O2A         -2.3320     0.5300    -0.8730 o          1 AL9      -0.483800
     10 O1A         -0.3700     0.5350    -2.4630 o          1 AL9      -0.483800
     11 N21         -1.4210    -1.5730    -1.7600 nz         1 AL9      -0.128500
     12 S1          -1.1080     0.0060    -1.3700 sy         1 AL9       0.992200
     13 C4           1.3550     0.0000     0.0000 cd         1 AL9       0.037000
     14 C5           2.0250     0.0000     1.2100 cd         1 AL9      -0.080000
     15 C6           1.3060    -0.0100     2.3580 cc         1 AL9       0.108400
     16 S2          -0.3700    -0.0060     1.7450 ss         1 AL9      -0.092800
     17 S7           1.8780    -0.0170     4.0240 sy         1 AL9       1.055200
     18 O3B          3.1970    -0.5420     3.9770 o          1 AL9      -0.550800
     19 O4B          0.8100    -0.5440     4.7980 o          1 AL9      -0.550800
     20 N8           2.0390     1.5620     4.4980 n7         1 AL9      -0.567100
     21 O16          2.4170     7.5730     6.2540 os         1 AL9      -0.275900
     22 C17          2.2520     7.5910     7.6730 c3         1 AL9       0.216700
     23 H91          0.1160     2.0550     5.1560 h1         1 AL9       0.013200
     24 H92          0.4780     2.5200     3.4880 h1         1 AL9       0.013200
     25 H11          1.7650     4.5150     2.9970 ha         1 AL9       0.102500
     26 H12          2.4380     6.7600     3.7620 ha         1 AL9       0.132500
     27 H14          1.5720     5.6330     7.7990 ha         1 AL9       0.132500
     28 H15          0.8970     3.3940     7.0240 ha         1 AL9       0.102500
     29 HNL1        -0.5610    -2.0830    -1.8000 hn         1 AL9       0.316133
     30 HNL2        -2.0170    -1.9760    -1.0650 hn         1 AL9       0.316133
     31 H4           1.9050     0.0070    -0.9330 ha         1 AL9       0.130000
     32 H5           3.1080     0.0010     1.2390 ha         1 AL9       0.155000
     33 HN8          2.9270     1.9020     4.8120 hn         1 AL9       0.372800
     34 H171         2.5350     8.5630     8.0580 h1         1 AL9       0.007033
     35 H172         1.2150     7.3940     7.9180 h1         1 AL9       0.007033
     36 H173         2.8790     6.8280     8.1190 h1         1 AL9       0.007033
     37 H213        -1.8800    -1.6120    -2.6490 hn         1 AL9       0.316133
@<TRIPOS>BOND
     1     1    12 1   
     2     1    13 2   
     3     1    16 1   
     4     2     3 1   
     5     2    20 1   
     6     2    23 1   
     7     2    24 1   
     8     3     4 ar  
     9     3     8 ar  
    10     4     5 ar  
    11     4    25 1   
    12     5     6 ar  
    13     5    26 1   
    14     6     7 ar  
    15     6    21 1   
    16     7     8 ar  
    17     7    27 1   
    18     8    28 1   
    19     9    12 2   
    20    10    12 2   
    21    11    12 1   
    22    11    29 1   
    23    11    30 1   
    24    11    37 1   
    25    13    14 1   
    26    13    31 1   
    27    14    15 2   
    28    14    32 1   
    29    15    16 1   
    30    15    17 1   
    31    17    18 2   
    32    17    19 2   
    33    17    20 1   
    34    20    33 1   
    35    21    22 1   
    36    22    34 1   
    37    22    35 1   
    38    22    36 1   
@<TRIPOS>SUBSTRUCTURE
     1 AL9         1 TEMP              0 ****  ****    0 ROOT
