@<TRIPOS>MOLECULE
ALD
   77    77     1     0     0
SMALL
bcc


@<TRIPOS>ATOM
      1 C9           0.0000     0.0000     0.0000 c          1 ALD       0.677100
      2 O31          1.2160     0.0000     0.0000 o          1 ALD      -0.673000
      3 O8          -0.6730     0.0000     1.1660 os         1 ALD      -0.416900
      4 C7           0.1180    -0.0050     2.3840 c3         1 ALD       0.301700
      5 C3          -0.8000    -0.0060     3.5790 ca         1 ALD      -0.119300
      6 C4          -1.2250    -1.2020     4.1240 ca         1 ALD      -0.074000
      7 C5          -2.0670    -1.2020     5.2210 ca         1 ALD      -0.107000
      8 C6          -2.4840    -0.0040     5.7710 ca         1 ALD      -0.091000
      9 C1          -2.0580     1.1930     5.2270 ca         1 ALD      -0.107000
     10 C2          -1.2120     1.1920     4.1330 ca         1 ALD      -0.074000
     11 N10         -0.6740     0.0040    -1.1680 ns         1 ALD      -0.151900
     12 C11          0.0550     0.1220    -2.4330 c3         1 ALD      -0.049300
     13 C12         -0.8280     0.7820    -3.4610 c          1 ALD       0.570100
     14 O32         -2.0160     0.9040    -3.2520 o          1 ALD      -0.660100
     15 C30          0.4530    -1.2720    -2.9230 c3         1 ALD      -0.041400
     16 C31          1.3370    -1.1430    -4.1660 c3         1 ALD      -0.085700
     17 C32          2.6680    -0.4940    -3.7790 c3         1 ALD       0.007400
     18 C33          1.5970    -2.5310    -4.7520 c3         1 ALD       0.007400
     19 N13         -0.2950     1.2390    -4.6120 ns         1 ALD      -0.173900
     20 C14         -1.1300     1.9790    -5.5610 c3         1 ALD      -0.068300
     21 C15         -0.5530     1.8470    -6.9470 c          1 ALD       0.566100
     22 O34          0.4560     1.1970    -7.1240 o          1 ALD      -0.676100
     23 C24         -1.1670     3.4570    -5.1640 c3         1 ALD      -0.039400
     24 C25         -1.8660     3.6030    -3.8110 c3         1 ALD      -0.064700
     25 C26         -1.7930     5.0620    -3.3550 c3         1 ALD      -0.000100
     26 C27         -3.3310     3.1840    -3.9460 c3         1 ALD      -0.000100
     27 N16         -1.1590     2.4490    -7.9900 ns         1 ALD      -0.138900
     28 C17         -0.5980     2.3200    -9.3380 c3         1 ALD       0.006700
     29 C22          0.4870     3.3800    -9.5420 c3         1 ALD       0.200400
     30 C18         -1.7060     2.5180   -10.3720 c3         1 ALD       0.025600
     31 C19         -2.7420     1.4000   -10.2310 c3         1 ALD      -0.282700
     32 C20         -3.9130     1.6680   -11.1770 c3         1 ALD       0.068400
     33 C21         -2.0960     0.0590   -10.5840 c3         1 ALD       0.068400
     34 O33         -0.1050     4.6800    -9.5020 oh         1 ALD      -0.601800
     35 H71          0.7460     0.8770     2.4110 h1         1 ALD       0.013700
     36 H72          0.7410    -0.8920     2.4060 h1         1 ALD       0.013700
     37 H4          -0.8990    -2.1400     3.6930 ha         1 ALD       0.106500
     38 H5          -2.4010    -2.1400     5.6480 ha         1 ALD       0.103000
     39 H6          -3.1450    -0.0040     6.6290 ha         1 ALD       0.101000
     40 H1          -2.3830     2.1320     5.6600 ha         1 ALD       0.103000
     41 H2          -0.8770     2.1300     3.7060 ha         1 ALD       0.106500
     42 HNA         -1.6670    -0.1170    -1.1720 hn         1 ALD       0.199500
     43 H11          0.9450     0.7200    -2.2830 h1         1 ALD       0.074700
     44 H301        -0.4380    -1.8360    -3.1710 hc         1 ALD       0.034200
     45 H302         1.0000    -1.7870    -2.1430 hc         1 ALD       0.034200
     46 H31          0.8360    -0.5270    -4.9030 hc         1 ALD       0.048700
     47 H321         3.0660    -0.9850    -2.8990 hc         1 ALD       0.005867
     48 H322         2.5100     0.5560    -3.5660 hc         1 ALD       0.005867
     49 H323         3.3700    -0.5950    -4.5970 hc         1 ALD       0.005867
     50 H331         0.6540    -2.9960    -5.0130 hc         1 ALD       0.005867
     51 H332         2.2110    -2.4390    -5.6400 hc         1 ALD       0.005867
     52 H333         2.1110    -3.1420    -4.0200 hc         1 ALD       0.005867
     53 HND          0.6840     1.1310    -4.7870 hn         1 ALD       0.216500
     54 H14         -2.1360     1.5770    -5.5490 h1         1 ALD       0.082700
     55 H241        -1.7090     4.0190    -5.9140 hc         1 ALD       0.023700
     56 H242        -0.1550     3.8360    -5.0900 hc         1 ALD       0.023700
     57 H25         -1.3760     2.9720    -3.0800 hc         1 ALD       0.043700
     58 H261        -2.2620     5.6960    -4.0970 hc         1 ALD       0.006867
     59 H262        -0.7560     5.3510    -3.2360 hc         1 ALD       0.006867
     60 H263        -2.3090     5.1710    -2.4080 hc         1 ALD       0.006867
     61 H271        -3.8440     3.8700    -4.6090 hc         1 ALD       0.006867
     62 H272        -3.8040     3.2030    -2.9710 hc         1 ALD       0.006867
     63 H273        -3.3840     2.1810    -4.3530 hc         1 ALD       0.006867
     64 HNG         -1.9960     2.9780    -7.8460 hn         1 ALD       0.189500
     65 H17         -0.1650     1.3340    -9.4560 h1         1 ALD       0.065700
     66 H221         1.2270     3.2960    -8.7560 h1         1 ALD       0.000200
     67 H222         0.9620     3.2290   -10.5040 h1         1 ALD       0.000200
     68 H181        -1.2800     2.4920   -11.3680 hc         1 ALD       0.018700
     69 H182        -2.1850     3.4760   -10.2090 hc         1 ALD       0.018700
     70 H19         -2.3810     1.4310   -11.2520 hc         1 ALD       0.102700
     71 H201        -3.5780     1.5750   -12.2030 hc         1 ALD      -0.000300
     72 H202        -4.7010     0.9490   -10.9880 hc         1 ALD      -0.000300
     73 H203        -4.2910     2.6690   -11.0100 hc         1 ALD      -0.000300
     74 H211        -1.2140     0.2310   -11.1900 hc         1 ALD      -0.000300
     75 H212        -1.8140    -0.4570    -9.6740 hc         1 ALD      -0.000300
     76 H213        -2.8020    -0.5470   -11.1390 hc         1 ALD      -0.000300
     77 HOX          0.5560     5.3320    -9.6660 ho         1 ALD       0.395000
@<TRIPOS>BOND
     1     1     2 2   
     2     1     3 1   
     3     1    11 1   
     4     3     4 1   
     5     4     5 1   
     6     4    35 1   
     7     4    36 1   
     8     5     6 ar  
     9     5    10 ar  
    10     6     7 ar  
    11     6    37 1   
    12     7     8 ar  
    13     7    38 1   
    14     8     9 ar  
    15     8    39 1   
    16     9    10 ar  
    17     9    40 1   
    18    10    41 1   
    19    11    12 1   
    20    11    42 1   
    21    12    13 1   
    22    12    15 1   
    23    12    43 1   
    24    13    14 2   
    25    13    19 1   
    26    15    16 1   
    27    15    44 1   
    28    15    45 1   
    29    16    17 1   
    30    16    18 1   
    31    16    46 1   
    32    17    47 1   
    33    17    48 1   
    34    17    49 1   
    35    18    50 1   
    36    18    51 1   
    37    18    52 1   
    38    19    20 1   
    39    19    53 1   
    40    20    21 1   
    41    20    23 1   
    42    20    54 1   
    43    21    22 2   
    44    21    27 1   
    45    23    24 1   
    46    23    55 1   
    47    23    56 1   
    48    24    25 1   
    49    24    26 1   
    50    24    57 1   
    51    25    58 1   
    52    25    59 1   
    53    25    60 1   
    54    26    61 1   
    55    26    62 1   
    56    26    63 1   
    57    27    28 1   
    58    27    64 1   
    59    28    29 1   
    60    28    30 1   
    61    28    65 1   
    62    29    34 1   
    63    29    66 1   
    64    29    67 1   
    65    30    31 1   
    66    30    68 1   
    67    30    69 1   
    68    31    32 1   
    69    31    33 1   
    70    31    70 1   
    71    32    71 1   
    72    32    72 1   
    73    32    73 1   
    74    33    74 1   
    75    33    75 1   
    76    33    76 1   
    77    34    77 1   
@<TRIPOS>SUBSTRUCTURE
     1 ALD         1 TEMP              0 ****  ****    0 ROOT
