@<TRIPOS>MOLECULE
ALE
   26    26     1     0     0
SMALL
bcc


@<TRIPOS>ATOM
      1 C1           0.0000     0.0000     0.0000 ca         1 ALE      -0.128300
      2 C2           1.3830     0.0000     0.0000 ca         1 ALE      -0.128000
      3 C3           2.0760     0.0000     1.1990 ca         1 ALE       0.095100
      4 C4           1.3770    -0.0010     2.4030 ca         1 ALE       0.104100
      5 C5          -0.0080    -0.0020     2.3960 ca         1 ALE      -0.137000
      6 C6          -0.6930    -0.0010     1.1960 ca         1 ALE      -0.067000
      7 O1           3.4360     0.0000     1.2000 oh         1 ALE      -0.488100
      8 O2           2.0530    -0.0020     3.5830 oh         1 ALE      -0.490100
      9 O3          -1.9460    -0.7680    -1.1710 oh         1 ALE      -0.569800
     10 C9          -2.2170     2.8190    -3.3390 c3         1 ALE       0.178100
     11 C8          -1.1170     1.4450    -1.6770 c3         1 ALE       0.130800
     12 C7          -0.7530     0.0070    -1.3050 c3         1 ALE       0.253400
     13 H2           1.9240     0.0010    -0.9380 ha         1 ALE       0.113000
     14 H6          -1.7770    -0.0020     1.1920 ha         1 ALE       0.124000
     15 H7          -0.1310    -0.4200    -2.0830 h1         1 ALE      -0.001300
     16 H1           3.7500     0.8470     0.9300 ho         1 ALE       0.403000
     17 H5          -0.5540    -0.0030     3.3320 ha         1 ALE       0.115000
     18 HA           2.0060    -0.8590     3.9720 ho         1 ALE       0.405000
     19 H3          -1.8220    -1.6100    -1.5770 ho         1 ALE       0.389000
     20 H91C        -2.7690     2.7940    -4.2710 h1         1 ALE      -0.001967
     21 H92C        -2.8380     3.2530    -2.5640 h1         1 ALE      -0.001967
     22 H93C        -1.3240     3.4190    -3.4640 h1         1 ALE      -0.001967
     23 HB          -1.2810     1.0420    -3.6640 hn         1 ALE       0.242800
     24 H81C        -1.7390     1.8720    -0.8990 h1         1 ALE       0.016700
     25 H82C        -0.2120     2.0320    -1.7780 h1         1 ALE       0.016700
     26 N1          -1.8500     1.4510    -2.9490 n7         1 ALE      -0.571200
@<TRIPOS>BOND
     1     1     2 ar  
     2     1     6 ar  
     3     1    12 1   
     4     2     3 ar  
     5     2    13 1   
     6     3     4 ar  
     7     3     7 1   
     8     4     5 ar  
     9     4     8 1   
    10     5     6 ar  
    11     5    17 1   
    12     6    14 1   
    13     7    16 1   
    14     8    18 1   
    15     9    12 1   
    16     9    19 1   
    17    10    20 1   
    18    10    21 1   
    19    10    22 1   
    20    10    26 1   
    21    11    12 1   
    22    11    24 1   
    23    11    25 1   
    24    11    26 1   
    25    12    15 1   
    26    23    26 1   
@<TRIPOS>SUBSTRUCTURE
     1 ALE         1 TEMP              0 ****  ****    0 ROOT
