@<TRIPOS>MOLECULE
molecule
   26    26     1     0     0
SMALL
bcc


@<TRIPOS>ATOM
      1 C1           0.0000     0.0000     0.0000 ca         1 ALE      -0.114300
      2 C2           1.3830     0.0000     0.0000 ca         1 ALE      -0.151000
      3 C3           2.0760     0.0000     1.1990 ca         1 ALE       0.087100
      4 C4           1.3770    -0.0010     2.4030 ca         1 ALE       0.095100
      5 C5          -0.0080    -0.0020     2.3960 ca         1 ALE      -0.157000
      6 C6          -0.6930    -0.0010     1.1960 ca         1 ALE      -0.094000
      7 O1           3.4360     0.0000     1.2000 oh         1 ALE      -0.509100
      8 O2           2.0530    -0.0020     3.5830 oh         1 ALE      -0.511100
      9 O3          -1.9460    -0.7680    -1.1710 oh         1 ALE      -0.585800
     10 C9          -2.2170     2.8190    -3.3390 c3         1 ALE       0.147100
     11 C8          -1.1170     1.4450    -1.6770 c3         1 ALE       0.156800
     12 C7          -0.7530     0.0070    -1.3050 c3         1 ALE       0.198400
     13 H2           1.9240     0.0010    -0.9380 ha         1 ALE       0.138000
     14 H6          -1.7770    -0.0020     1.1920 ha         1 ALE       0.154000
     15 H7          -0.1310    -0.4200    -2.0830 h1         1 ALE       0.033700
     16 H1           3.7500     0.8470     0.9300 ho         1 ALE       0.421000
     17 H5          -0.5540    -0.0030     3.3320 ha         1 ALE       0.144000
     18 HA           2.0060    -0.8590     3.9720 ho         1 ALE       0.423000
     19 H3          -1.8220    -1.6100    -1.5770 ho         1 ALE       0.404000
     20 H91C        -2.7690     2.7940    -4.2710 h1         1 ALE       0.031700
     21 H92C        -2.8380     3.2530    -2.5640 h1         1 ALE       0.031700
     22 H93C        -1.3240     3.4190    -3.4640 h1         1 ALE       0.031700
     23 HB          -1.2810     1.0420    -3.6640 hn         1 ALE       0.344800
     24 H81C        -1.7390     1.8720    -0.8990 h1         1 ALE       0.044700
     25 H82C        -0.2120     2.0320    -1.7780 h1         1 ALE       0.044700
     26 N1          -1.8500     1.4510    -2.9490 n7         1 ALE      -0.809200
@<TRIPOS>BOND
     1     1     2 ar
     2     1     6 ar
     3     1    12 1
     4     2     3 ar
     5     3     4 ar
     6     3     7 1
     7     4     5 ar
     8     4     8 1
     9     5     6 ar
    10     9    12 1
    11    10    26 1
    12    26    11 1
    13    11    12 1
    14     2    13 1
    15     6    14 1
    16    12    15 1
    17     7    16 1
    18     5    17 1
    19     8    18 1
    20     9    19 1
    21    10    20 1
    22    10    21 1
    23    10    22 1
    24    26    23 1
    25    11    24 1
    26    11    25 1
@<TRIPOS>SUBSTRUCTURE
     1 ALE         1 TEMP              0 ****  ****    0 ROOT
