@<TRIPOS>MOLECULE
molecule
    5     4     1     0     0
SMALL
bcc


@<TRIPOS>ATOM
      1 Al           7.3920    68.8290    74.6090 Al         1 ALF       0.956000
      2 F1           8.5740    70.0280    75.1840 f          1 ALF      -0.489000
      3 F2           6.1610    67.6360    74.0360 f          1 ALF      -0.489000
      4 F3           8.3250    68.6190    73.0940 f          1 ALF      -0.489000
      5 F4           6.4680    69.0490    76.1250 f          1 ALF      -0.489000
@<TRIPOS>BOND
     1     1     2 1
     2     1     3 1
     3     1     4 1
     4     1     5 1
@<TRIPOS>SUBSTRUCTURE
     1 ALF         1 TEMP              0 ****  ****    0 ROOT
