@<TRIPOS>MOLECULE
molecule
   37    39     1     0     0
SMALL
bcc


@<TRIPOS>ATOM
      1 OAO          0.0000     0.0000     0.0000 oh         1 ALH      -0.521100
      2 CAN          1.3580     0.0000     0.0000 ca         1 ALH       0.117100
      3 CAU          2.0520     0.0000     1.2030 ca         1 ALH      -0.156000
      4 CAT          3.4300    -0.0000     1.2060 ca         1 ALH      -0.093500
      5 CAM          4.1290     0.0010    -0.0020 ca         1 ALH      -0.058800
      6 CAE          3.4290     0.0090    -1.2090 ca         1 ALH      -0.093500
      7 CAF          2.0500     0.0030    -1.2040 ca         1 ALH      -0.156000
      8 CAL          5.6060     0.0000    -0.0020 cc         1 ALH       0.014700
      9 NAS          6.4030     0.9730     0.5600 na         1 ALH      -0.265100
     10 CAR          7.7220     0.6340     0.3640 ca         1 ALH       0.344500
     11 NAQ          8.8650     1.2140     0.6990 nb         1 ALH      -0.676000
     12 CAJ          7.7410    -0.5880    -0.3400 ca         1 ALH       0.315800
     13 NAI          8.9060    -1.1440    -0.6680 nb         1 ALH      -0.618000
     14 CAH         10.0330    -0.5500    -0.3250 ca         1 ALH       0.270900
     15 CAP         10.0130     0.6480     0.3710 ca         1 ALH       0.317900
     16 CAK          6.3910    -0.9560    -0.5570 cd         1 ALH      -0.234000
     17 CAG          5.9110    -2.1930    -1.2720 c3         1 ALH      -0.006200
     18 CAD          5.7470    -1.8890    -2.7630 c3         1 ALH      -0.079400
     19 CAC          5.2620    -3.1430    -3.4890 c3         1 ALH      -0.085400
     20 CAB          5.0980    -2.8400    -4.9800 c3         1 ALH      -0.091100
     21 HAO         -0.3140    -0.8890    -0.0000 ho         1 ALH       0.423000
     22 HAU          1.5090    -0.0010     2.1400 ha         1 ALH       0.145500
     23 HAT          3.9700    -0.0030     2.1450 ha         1 ALH       0.145000
     24 HAE          3.9680     0.0100    -2.1490 ha         1 ALH       0.145000
     25 HAF          1.5060     0.0090    -2.1410 ha         1 ALH       0.145500
     26 HAS          6.0760     1.7920     1.0340 hn         1 ALH       0.311700
     27 HAH         10.9810    -1.0040    -0.5880 h4         1 ALH       0.030100
     28 HAP         10.9450     1.1250     0.6460 h4         1 ALH       0.031100
     29 HAG1         6.6350    -2.9880    -1.1430 hc         1 ALH       0.054700
     30 HAG2         4.9580    -2.5010    -0.8600 hc         1 ALH       0.054700
     31 HAD1         5.0220    -1.0940    -2.8920 hc         1 ALH       0.044200
     32 HAD2         6.7000    -1.5790    -3.1750 hc         1 ALH       0.044200
     33 HAC1         4.3090    -3.4530    -3.0770 hc         1 ALH       0.040700
     34 HAC2         5.9860    -3.9380    -3.3600 hc         1 ALH       0.040700
     35 HAB1         4.7730    -3.7350    -5.4970 hc         1 ALH       0.032367
     36 HAB2         6.0460    -2.5120    -5.3880 hc         1 ALH       0.032367
     37 HAB3         4.3580    -2.0590    -5.1100 hc         1 ALH       0.032367
@<TRIPOS>BOND
     1     1     2 1
     2     1    21 1
     3     2     3 ar
     4     2     7 ar
     5     3     4 ar
     6     3    22 1
     7     4     5 ar
     8     4    23 1
     9     5     6 ar
    10     5     8 1
    11     6     7 ar
    12     6    24 1
    13     7    25 1
    14     8     9 1
    15     8    16 2
    16     9    10 1
    17     9    26 1
    18    10    11 ar
    19    10    12 ar
    20    11    15 ar
    21    12    13 ar
    22    12    16 1
    23    13    14 ar
    24    14    15 ar
    25    14    27 1
    26    15    28 1
    27    16    17 1
    28    17    18 1
    29    17    29 1
    30    17    30 1
    31    18    19 1
    32    18    31 1
    33    18    32 1
    34    19    20 1
    35    19    33 1
    36    19    34 1
    37    20    35 1
    38    20    36 1
    39    20    37 1
@<TRIPOS>SUBSTRUCTURE
     1 ALH         1 TEMP              0 ****  ****    0 ROOT
