@<TRIPOS>MOLECULE
ALH
   37    39     1     0     0
SMALL
bcc


@<TRIPOS>ATOM
      1 OAO        -0.1170    0.1470    0.5910 oh        1 ALH     -0.493100
      2 CAN         1.2430    0.0840    0.4010 ca        1 ALH      0.136100
      3 CAU         2.0440    0.2840    1.5380 ca        1 ALH     -0.187000
      4 CAT         3.4260    0.2350    1.4090 ca        1 ALH     -0.074500
      5 CAM         4.0210   -0.0130    0.1620 ca        1 ALH     -0.087800
      6 CAE         3.2100   -0.2100   -0.9630 ca        1 ALH     -0.074500
      7 CAF         1.8230   -0.1640   -0.8510 ca        1 ALH     -0.187000
      8 CAL         5.4700   -0.0680    0.0320 cc        1 ALH      0.015700
      9 NAS         6.2910    0.8790    0.6720 na        1 ALH     -0.274100
     10 CAR         7.6200    0.5830    0.3760 ca        1 ALH      0.317500
     11 NAQ         8.7610    1.2270    0.7720 nb        1 ALH     -0.637000
     12 CAJ         7.6360   -0.6150   -0.4790 ca        1 ALH      0.300800
     13 NAI         8.8020   -1.1480   -0.9180 nb        1 ALH     -0.588000
     14 CAH         9.9060   -0.5050   -0.5190 ca        1 ALH      0.254900
     15 CAP         9.8840    0.6640    0.3110 ca        1 ALH      0.297900
     16 CAK         6.2510   -0.9950   -0.6750 cd        1 ALH     -0.213000
     17 CAG         5.7930   -2.1650   -1.4370 c3        1 ALH     -0.012200
     18 CAD         5.9420   -1.9710   -2.9360 c3        1 ALH     -0.077400
     19 CAC         5.4700   -3.1970   -3.6890 c3        1 ALH     -0.080400
     20 CAB         5.6080   -3.0140   -5.1790 c3        1 ALH     -0.092100
     21 HAO        -0.5470   -0.0130   -0.2620 ho        1 ALH      0.423000
     22 HAU         1.5680    0.4730    2.5110 ha        1 ALH      0.147000
     23 HAT         4.0550    0.3770    2.3020 ha        1 ALH      0.144000
     24 HAE         3.6750   -0.4010   -1.9440 ha        1 ALH      0.144000
     25 HAF         1.1900   -0.3200   -1.7360 ha        1 ALH      0.147000
     26 HAS         5.9720    1.6490    1.2010 hn        1 ALH      0.312700
     27 HAH        10.8680   -0.9190   -0.8640 h4        1 ALH      0.031100
     28 HAP        10.8280    1.1530    0.6070 h4        1 ALH      0.031100
     29 HAG1        4.7170   -2.3810   -1.1920 hc        1 ALH      0.054200
     30 HAG2        6.3970   -3.0620   -1.1230 hc        1 ALH      0.054200
     31 HAD1        5.3500   -1.0760   -3.2640 hc        1 ALH      0.046700
     32 HAD2        7.0170   -1.7670   -3.1800 hc        1 ALH      0.046700
     33 HAC1        6.0690   -4.0880   -3.3620 hc        1 ALH      0.038200
     34 HAC2        4.3980   -3.4070   -3.4330 hc        1 ALH      0.038200
     35 HAB1        4.9990   -2.1450   -5.5280 hc        1 ALH      0.032367
     36 HAB2        5.2580   -3.9280   -5.7160 hc        1 ALH      0.032367
     37 HAB3        6.6740   -2.8280   -5.4560 hc        1 ALH      0.032367
@<TRIPOS>BOND
     1    1    2 1   
     2    1   21 1   
     3    2    3 ar  
     4    2    7 ar  
     5    3    4 ar  
     6    3   22 1   
     7    4    5 ar  
     8    4   23 1   
     9    5    6 ar  
    10    5    8 1   
    11    6    7 ar  
    12    6   24 1   
    13    7   25 1   
    14    8    9 1   
    15    8   16 2   
    16    9   10 1   
    17    9   26 1   
    18   10   11 ar  
    19   10   12 ar  
    20   11   15 ar  
    21   12   13 ar  
    22   12   16 1   
    23   13   14 ar  
    24   14   15 ar  
    25   14   27 1   
    26   15   28 1   
    27   16   17 1   
    28   17   18 1   
    29   17   29 1   
    30   17   30 1   
    31   18   19 1   
    32   18   31 1   
    33   18   32 1   
    34   19   20 1   
    35   19   33 1   
    36   19   34 1   
    37   20   35 1   
    38   20   36 1   
    39   20   37 1   
@<TRIPOS>SUBSTRUCTURE
     1 ALH         1 TEMP              0 ****  ****    0 ROOT
