@<TRIPOS>MOLECULE
ALI
   26    27     1     0     0
SMALL
bcc


@<TRIPOS>ATOM
      1 C1           0.0000     0.0000     0.0000 c3         1 ALI       0.162100
      2 C2           1.5550     0.0000     0.0000 c3         1 ALI       0.095500
      3 C3           1.9770     0.0000     1.4720 c3         1 ALI       0.155100
      4 C4           0.7580    -0.4240     2.3020 c3         1 ALI       0.186100
      5 C5          -0.3880    -0.6930     1.3180 c3         1 ALI      -0.101700
      6 C6          -1.6920    -0.1030     1.8590 c3         1 ALI       0.233400
      7 C7           0.8020    -1.7470    -1.2030 ce         1 ALI       0.771600
      8 C8           1.8150    -3.6780    -1.9390 c2         1 ALI       0.533100
      9 N2           1.8720    -1.2990    -0.6180 n2         1 ALI      -0.669900
     10 N7           0.7580    -2.9370    -1.8680 ne         1 ALI      -0.571000
     11 O3           2.3950     1.3100     1.8590 oh         1 ALI      -0.588800
     12 O4           1.0560    -1.6130     3.0370 oh         1 ALI      -0.573800
     13 O6          -2.0310    -0.7420     3.0910 oh         1 ALI      -0.588800
     14 O7          -0.2630    -0.9250    -1.0910 os         1 ALI      -0.392400
     15 H1          -0.4390     0.9810    -0.1360 h1         1 ALI       0.066700
     16 H2           1.9670     0.8350    -0.5530 h1         1 ALI       0.060700
     17 H3           2.7840    -0.7070     1.6200 h1         1 ALI       0.039700
     18 HA           0.4800     0.3740     2.9790 h1         1 ALI       0.029700
     19 H5          -0.4950    -1.7590     1.1580 hc         1 ALI       0.074700
     20 H6C1        -1.5660     0.9600     2.0260 h1         1 ALI      -0.009800
     21 H6C2        -2.4860    -0.2630     1.1390 h1         1 ALI      -0.009800
     22 H8C1         2.7360    -3.3550    -1.4700 h4         1 ALI      -0.039200
     23 H8C2         1.7800    -4.6230    -2.4680 h4         1 ALI      -0.039200
     24 HB           3.3240     1.3070     2.0240 ho         1 ALI       0.394000
     25 H4           1.2890    -1.3850     3.9220 ho         1 ALI       0.391000
     26 H6          -2.9390    -0.5820     3.2890 ho         1 ALI       0.391000
@<TRIPOS>BOND
     1     1     2 1   
     2     1     5 1   
     3     1    14 1   
     4     1    15 1   
     5     2     3 1   
     6     2     9 1   
     7     2    16 1   
     8     3     4 1   
     9     3    11 1   
    10     3    17 1   
    11     4     5 1   
    12     4    12 1   
    13     4    18 1   
    14     5     6 1   
    15     5    19 1   
    16     6    13 1   
    17     6    20 1   
    18     6    21 1   
    19     7     9 2   
    20     7    10 1   
    21     7    14 1   
    22     8    10 2   
    23     8    22 1   
    24     8    23 1   
    25    11    24 1   
    26    12    25 1   
    27    13    26 1   
@<TRIPOS>SUBSTRUCTURE
     1 ALI         1 TEMP              0 ****  ****    0 ROOT
