@<TRIPOS>MOLECULE
molecule
   39    40     1     0     0
SMALL
bcc


@<TRIPOS>ATOM
      1 O            0.0000     0.0000     0.0000 o          1 ALJ      -0.618500
      2 C            1.2120     0.0000     0.0000 c          1 ALJ       0.709500
      3 NP           1.9090     0.0000     1.1540 n          1 ALJ      -0.483800
      4 CDP          1.4050    -0.1000     2.5380 c3         1 ALJ       0.106000
      5 CGP          2.6330    -0.1450     3.4740 c3         1 ALJ      -0.106400
      6 CBP          3.7720    -0.6250     2.5350 c3         1 ALJ      -0.062400
      7 CAP          3.3860     0.0620     1.2040 c3         1 ALJ       0.016700
      8 CP           3.9150    -0.7410     0.0430 c          1 ALJ       0.694500
      9 OP           4.9570    -1.3540     0.1530 o          1 ALJ      -0.600500
     10 N            3.2300    -0.7740    -1.1150 ns         1 ALJ      -0.603900
     11 CA           1.9910    -0.0180    -1.2950 c3         1 ALJ       0.045700
     12 CB           1.1480    -0.6770    -2.3870 c3         1 ALJ      -0.079400
     13 CG           1.9340    -0.6930    -3.7000 c3         1 ALJ      -0.079400
     14 CD           1.0900    -1.3510    -4.7920 c3         1 ALJ       0.082800
     15 NE           1.8430    -1.3660    -6.0490 n2         1 ALJ      -0.368900
     16 CZ           2.1730    -2.5010    -6.5980 c2         1 ALJ       0.416100
     17 NH1          2.9880    -2.5180    -7.7040 nz         1 ALJ      -0.760100
     18 NH2          1.7060    -3.6810    -6.0680 nz         1 ALJ      -0.760100
     19 HDP1         0.8230    -1.0070     2.6520 h1         1 ALJ       0.067200
     20 HDP2         0.7970     0.7660     2.7710 h1         1 ALJ       0.067200
     21 HGP1         2.4750    -0.8560     4.2760 hc         1 ALJ       0.074700
     22 HGP2         2.8510     0.8420     3.8640 hc         1 ALJ       0.074700
     23 HBP1         4.6900    -0.1660     2.8800 hc         1 ALJ       0.085200
     24 HBP2         3.6450    -1.6920     2.3950 hc         1 ALJ       0.085200
     25 HAP          3.7380     1.0860     1.1720 h1         1 ALJ       0.096700
     26 H            3.5770    -1.3290    -1.8720 hn         1 ALJ       0.300500
     27 HA           2.2310     0.9990    -1.5830 h1         1 ALJ       0.083700
     28 HBC1         0.2300    -0.1170    -2.5220 hc         1 ALJ       0.083200
     29 HBC2         0.9100    -1.6930    -2.0960 hc         1 ALJ       0.083200
     30 HGC1         2.8510    -1.2530    -3.5640 hc         1 ALJ       0.078200
     31 HGC2         2.1720     0.3230    -3.9900 hc         1 ALJ       0.078200
     32 HDC1         0.8530    -2.3680    -4.5010 h1         1 ALJ       0.097700
     33 HDC2         0.1730    -0.7910    -4.9270 h1         1 ALJ       0.097700
     34 HH11         3.2330    -1.5810    -7.9540 hn         1 ALJ       0.500133
     35 HH12         2.5070    -2.9520    -8.4670 hn         1 ALJ       0.500133
     36 HH21         0.7090    -3.6440    -5.9990 hn         1 ALJ       0.500133
     37 HH22         1.9710    -4.4410    -6.6630 hn         1 ALJ       0.500133
     38 HH13         3.8180    -3.0390    -7.4990 hn         1 ALJ       0.500133
     39 HH23         2.0720    -3.8000    -5.1450 hn         1 ALJ       0.500133
@<TRIPOS>BOND
     1     1     2 2
     2     2     3 1
     3     2    11 1
     4     3     4 1
     5     3     7 1
     6     4     5 1
     7     4    19 1
     8     4    20 1
     9     5     6 1
    10     5    21 1
    11     5    22 1
    12     6     7 1
    13     6    23 1
    14     6    24 1
    15     7     8 1
    16     7    25 1
    17     8     9 2
    18     8    10 1
    19    10    11 1
    20    10    26 1
    21    11    12 1
    22    11    27 1
    23    12    13 1
    24    12    28 1
    25    12    29 1
    26    13    14 1
    27    13    30 1
    28    13    31 1
    29    14    15 1
    30    14    32 1
    31    14    33 1
    32    15    16 2
    33    16    17 1
    34    16    18 1
    35    17    34 1
    36    17    35 1
    37    18    36 1
    38    18    37 1
    39    38    17 1
    40    39    18 1
@<TRIPOS>SUBSTRUCTURE
     1 ALJ         1 TEMP              0 ****  ****    0 ROOT
