@<TRIPOS>MOLECULE
ALJ
   39    40     1     0     0
SMALL
bcc


@<TRIPOS>ATOM
      1 O            0.0000     0.0000     0.0000 o          1 ALJ      -0.659500
      2 C            1.2120     0.0000     0.0000 c          1 ALJ       0.628500
      3 NP           1.9090     0.0000     1.1540 n          1 ALJ      -0.141800
      4 CDP          1.4050    -0.1000     2.5380 c3         1 ALJ       0.063000
      5 CGP          2.6330    -0.1450     3.4740 c3         1 ALJ      -0.043400
      6 CBP          3.7720    -0.6250     2.5350 c3         1 ALJ       0.000600
      7 CAP          3.3860     0.0620     1.2040 c3         1 ALJ      -0.060300
      8 CP           3.9150    -0.7410     0.0430 c          1 ALJ       0.613500
      9 OP           4.9570    -1.3540     0.1530 o          1 ALJ      -0.630500
     10 N            3.2300    -0.7740    -1.1150 ns         1 ALJ      -0.233900
     11 CA           1.9910    -0.0180    -1.2950 c3         1 ALJ      -0.043300
     12 CB           1.1480    -0.6770    -2.3870 c3         1 ALJ      -0.019400
     13 CG           1.9340    -0.6930    -3.7000 c3         1 ALJ      -0.021400
     14 CD           1.0900    -1.3510    -4.7920 c3         1 ALJ       0.100800
     15 NE           1.8430    -1.3660    -6.0490 n2         1 ALJ      -0.149900
     16 CZ           2.1730    -2.5010    -6.5980 c2         1 ALJ      -0.113900
     17 NH1          2.9880    -2.5180    -7.7040 nz         1 ALJ       0.193400
     18 NH2          1.7060    -3.6810    -6.0680 nz         1 ALJ       0.193400
     19 HDP1         0.8230    -1.0070     2.6520 h1         1 ALJ       0.033700
     20 HDP2         0.7970     0.7660     2.7710 h1         1 ALJ       0.033700
     21 HGP1         2.4750    -0.8560     4.2760 hc         1 ALJ       0.040200
     22 HGP2         2.8510     0.8420     3.8640 hc         1 ALJ       0.040200
     23 HBP1         3.6450    -1.6920     2.3950 hc         1 ALJ       0.050700
     24 HBP2         4.6900    -0.1660     2.8800 hc         1 ALJ       0.050700
     25 HAP          3.7380     1.0860     1.1720 h1         1 ALJ       0.065700
     26 H            3.5770    -1.3290    -1.8720 hn         1 ALJ       0.165500
     27 HA           2.2310     0.9990    -1.5830 h1         1 ALJ       0.052700
     28 HBC1         0.2300    -0.1170    -2.5220 hc         1 ALJ       0.049700
     29 HBC2         0.9100    -1.6930    -2.0960 hc         1 ALJ       0.049700
     30 HGC1         2.8510    -1.2530    -3.5640 hc         1 ALJ       0.043700
     31 HGC2         2.1720     0.3230    -3.9900 hc         1 ALJ       0.043700
     32 HDC1         0.1730    -0.7910    -4.9270 h1         1 ALJ       0.060700
     33 HDC2         0.8530    -2.3680    -4.5010 h1         1 ALJ       0.060700
     34 HH11         3.2360    -1.5810    -7.9510 hn         1 ALJ       0.246967
     35 HH12         2.5050    -2.9480    -8.4680 hn         1 ALJ       0.246967
     36 HH21         2.0990    -3.8170    -5.1580 hn         1 ALJ       0.246967
     37 HH22         0.7090    -3.6440    -5.9990 hn         1 ALJ       0.246967
     38 HH13         3.7900    -3.0870    -7.5180 hn         1 ALJ       0.246967
     39 HH23         1.9860    -4.4430    -6.6540 hn         1 ALJ       0.246967
@<TRIPOS>BOND
     1     1     2 2   
     2     2     3 1   
     3     2    11 1   
     4     3     4 1   
     5     3     7 1   
     6     4     5 1   
     7     4    19 1   
     8     4    20 1   
     9     5     6 1   
    10     5    21 1   
    11     5    22 1   
    12     6     7 1   
    13     6    23 1   
    14     6    24 1   
    15     7     8 1   
    16     7    25 1   
    17     8     9 2   
    18     8    10 1   
    19    10    11 1   
    20    10    26 1   
    21    11    12 1   
    22    11    27 1   
    23    12    13 1   
    24    12    28 1   
    25    12    29 1   
    26    13    14 1   
    27    13    30 1   
    28    13    31 1   
    29    14    15 1   
    30    14    32 1   
    31    14    33 1   
    32    15    16 2   
    33    16    17 1   
    34    16    18 1   
    35    17    34 1   
    36    17    35 1   
    37    17    38 1   
    38    18    36 1   
    39    18    37 1   
    40    18    39 1   
@<TRIPOS>SUBSTRUCTURE
     1 ALJ         1 TEMP              0 ****  ****    0 ROOT
