@<TRIPOS>MOLECULE
molecule
   16    15     1     0     0
SMALL
bcc


@<TRIPOS>ATOM
      1 O3           0.0000     0.0000     0.0000 os         1 ALK      -0.619200
      2 C5           1.4280     0.0000     0.0000 c3         1 ALK       0.221700
      3 C3          -2.8770     1.4580     0.1680 c3         1 ALK      -0.089100
      4 C2          -2.6440     0.1500     0.9270 c3         1 ALK      -0.015100
      5 O5          -3.4230     0.1510     2.1260 oh         1 ALK      -0.569800
      6 O1          -0.6320    -1.3760     2.1490 o          1 ALK      -0.808500
      7 O2          -0.4750     1.1430     2.2010 o          1 ALK      -0.808500
      8 P1          -0.8770     0.0000     1.3500 p5         1 ALK       1.175600
      9 H1           1.7890    -0.7600     0.6820 h1         1 ALK       0.011700
     10 H2           1.7890     0.9710     0.3180 h1         1 ALK       0.011700
     11 H3           1.7890    -0.2100    -1.0000 h1         1 ALK       0.011700
     12 H4          -3.6790     2.0120     0.6420 hc         1 ALK       0.027367
     13 H5          -1.9710     2.0510     0.1830 hc         1 ALK       0.027367
     14 H6          -3.1480     1.2370    -0.8570 hc         1 ALK       0.027367
     15 H7          -2.9390    -0.6860     0.3050 h1         1 ALK       0.019700
     16 H8          -4.0340    -0.5670     2.1040 ho         1 ALK       0.374000
@<TRIPOS>BOND
     1     2     1 1
     2     1     8 1
     3     7     8 1
     4     8     6 1
     5     8     4 1
     6     3     4 1
     7     4     5 1
     8     2     9 1
     9     2    10 1
    10     2    11 1
    11     3    12 1
    12     3    13 1
    13     3    14 1
    14     4    15 1
    15     5    16 1
@<TRIPOS>SUBSTRUCTURE
     1 ALK         1 TEMP              0 ****  ****    0 ROOT
