@<TRIPOS>MOLECULE
molecule
   29    29     1     0     0
SMALL
bcc


@<TRIPOS>ATOM
      1 C1           0.0000     0.0000     0.0000 c          1 ALP       0.901600
      2 O1          -0.6030     0.9060    -0.5250 o          1 ALP      -0.847300
      3 O2          -0.6710    -1.0050     0.5820 o          1 ALP      -0.847300
      4 C2           1.5070     0.0000     0.0000 c3         1 ALP      -0.156700
      5 C21          2.0160     0.0000     1.4420 c3         1 ALP       0.158400
      6 O22          1.5390    -1.1670     2.1160 oh         1 ALP      -0.564800
      7 C3           2.0180     1.2470    -0.7220 c3         1 ALP       0.369600
      8 S4           3.8640     1.2780    -0.7900 ss         1 ALP      -0.545200
      9 C5           4.0220     2.2020    -2.3780 c3         1 ALP       0.110100
     10 C51          4.3700     3.6700    -2.1270 c3         1 ALP      -0.072600
     11 C52          5.0580     1.5450    -3.2910 c3         1 ALP      -0.072600
     12 C6           2.6010     2.0630    -2.9650 c3         1 ALP       0.052500
     13 C8           1.9810     3.4340    -3.0420 c          1 ALP       0.865600
     14 O81          1.2610     3.8230    -2.1510 o          1 ALP      -0.854300
     15 O82          2.2270     4.2250    -4.0980 o          1 ALP      -0.854300
     16 N7           1.7180     1.1940    -2.1820 n7         1 ALP      -0.817200
     17 H2           1.8670    -0.8850    -0.5100 hc         1 ALP       0.067700
     18 H211         1.6550     0.8850     1.9530 h1         1 ALP       0.002200
     19 H212         3.0990    -0.0010     1.4430 h1         1 ALP       0.002200
     20 H22          2.0100    -1.2780     2.9250 ho         1 ALP       0.346000
     21 H3           1.6290     2.1560    -0.2770 h2         1 ALP       0.087700
     22 H511         3.6340     4.1070    -1.4640 hc         1 ALP       0.034200
     23 H512         5.3510     3.7350    -1.6710 hc         1 ALP       0.034200
     24 H513         4.3730     4.2060    -3.0680 hc         1 ALP       0.034200
     25 H521         4.7530     0.5300    -3.5130 hc         1 ALP       0.034200
     26 H522         5.1350     2.1090    -4.2140 hc         1 ALP       0.034200
     27 H523         6.0210     1.5320    -2.7950 hc         1 ALP       0.034200
     28 H6           2.6810     1.6580    -3.9670 h1         1 ALP       0.057700
     29 HN7          0.7660     1.4590    -2.3380 hn         1 ALP       0.406800
@<TRIPOS>BOND
     1     1     2 1
     2     1     3 1
     3     1     4 1
     4     4     5 1
     5     4     7 1
     6     4    17 1
     7     5     6 1
     8     5    18 1
     9     5    19 1
    10     6    20 1
    11     7     8 1
    12     7    16 1
    13     7    21 1
    14     8     9 1
    15     9    10 1
    16     9    11 1
    17     9    12 1
    18    10    22 1
    19    10    23 1
    20    10    24 1
    21    11    25 1
    22    11    26 1
    23    11    27 1
    24    12    13 1
    25    12    16 1
    26    12    28 1
    27    13    14 1
    28    13    15 1
    29    16    29 1
@<TRIPOS>SUBSTRUCTURE
     1 ALP         1 TEMP              0 ****  ****    0 ROOT
