@<TRIPOS>MOLECULE
molecule
   13    12     1     0     0
SMALL
bcc


@<TRIPOS>ATOM
      1 CM           0.0000     0.0000     0.0000 c3         1 ALQ      -0.064600
      2 CA           1.5300     0.0000     0.0000 c3         1 ALQ      -0.177700
      3 CB           2.0400     0.0000     1.4420 c3         1 ALQ      -0.064600
      4 C            2.0310    -1.2310    -0.7090 c          1 ALQ       0.895600
      5 O            2.7260    -2.0260    -0.1220 o          1 ALQ      -0.856800
      6 OXT          1.7070    -1.4450    -1.9940 o          1 ALQ      -0.856800
      7 HM1         -0.3610    -0.9350     0.4100 hc         1 ALQ       0.015200
      8 HM2         -0.3610     0.8230     0.6050 hc         1 ALQ       0.015200
      9 HM3         -0.3610     0.1130    -1.0150 hc         1 ALQ       0.015200
     10 HA           1.8910     0.8840    -0.5110 hc         1 ALQ       0.032700
     11 HB1          1.6920     0.8920     1.9490 hc         1 ALQ       0.015200
     12 HB2          1.6670    -0.8770     1.9580 hc         1 ALQ       0.015200
     13 HB3          3.1230    -0.0150     1.4420 hc         1 ALQ       0.015200
@<TRIPOS>BOND
     1     1     2 1
     2     1     7 1
     3     1     8 1
     4     1     9 1
     5     2     3 1
     6     2     4 1
     7     2    10 1
     8     3    11 1
     9     3    12 1
    10     3    13 1
    11     4     5 1
    12     4     6 1
@<TRIPOS>SUBSTRUCTURE
     1 ALQ         1 TEMP              0 ****  ****    0 ROOT
