@<TRIPOS>MOLECULE
ALQ
   13    12     1     0     0
SMALL
bcc


@<TRIPOS>ATOM
      1 CM         -0.0490   -0.1560    0.1980 c3        1 ALQ     -0.064100
      2 CA          1.4350   -0.0080   -0.0320 c3        1 ALQ     -0.193700
      3 CB          2.1710    0.1650    1.2750 c3        1 ALQ     -0.064100
      4 C           1.9760   -1.2570   -0.7750 c         1 ALQ      0.914600
      5 O           1.8690   -2.3850   -0.2150 o         1 ALQ     -0.849800
      6 OXT         2.5000   -1.0790   -1.9120 o         1 ALQ     -0.849800
      7 HM1        -0.5890   -0.1870   -0.7790 hc        1 ALQ      0.012700
      8 HM2        -0.2540   -1.1090    0.7440 hc        1 ALQ      0.012700
      9 HM3        -0.4520    0.6980    0.7980 hc        1 ALQ      0.012700
     10 HA          1.6210    0.8890   -0.6810 hc        1 ALQ      0.029700
     11 HB1         3.2520    0.3680    1.0840 hc        1 ALQ      0.012700
     12 HB2         1.7500    1.0150    1.8660 hc        1 ALQ      0.012700
     13 HB3         2.0900   -0.7710    1.8810 hc        1 ALQ      0.012700
@<TRIPOS>BOND
     1    1    2 1   
     2    1    7 1   
     3    1    8 1   
     4    1    9 1   
     5    2    3 1   
     6    2    4 1   
     7    2   10 1   
     8    3   11 1   
     9    3   12 1   
    10    3   13 1   
    11    4    5 1   
    12    4    6 1   
@<TRIPOS>SUBSTRUCTURE
     1 ALQ         1 TEMP              0 ****  ****    0 ROOT
