@<TRIPOS>MOLECULE
molecule
   27    29     1     0     0
SMALL
bcc


@<TRIPOS>ATOM
      1 C1           0.0000     0.0000     0.0000 ca         1 ALR      -0.127100
      2 C2           0.0670     0.0180     2.4390 ca         1 ALR      -0.127100
      3 C3           1.5340     0.0120     2.3580 c          1 ALR       0.721100
      4 C4           1.4690     0.0000     0.0000 c          1 ALR       0.721100
      5 O5           2.1950     0.0170     3.3780 o          1 ALR      -0.609500
      6 O6           2.0740    -0.0080    -1.0550 o          1 ALR      -0.609500
      7 C8          -0.6790     0.0120     1.2390 ca         1 ALR       0.002000
      8 C9          -2.0880     0.0180     1.2770 ca         1 ALR      -0.054000
      9 C10         -2.7340     0.0290     2.5260 ca         1 ALR      -0.102500
     10 C11         -1.9980     0.0340     3.6760 ca         1 ALR      -0.147000
     11 C12         -0.6090     0.0290     3.6510 ca         1 ALR      -0.058000
     12 C16         -0.7410    -0.0070    -1.1730 ca         1 ALR      -0.058000
     13 C17         -2.1290    -0.0000    -1.1220 ca         1 ALR      -0.147000
     14 C18         -2.8020     0.0110     0.0660 ca         1 ALR      -0.102500
     15 N22          2.1500     0.0000     1.1620 n          1 ALR      -0.428400
     16 C23          4.1110    -1.4280     1.1180 c          1 ALR       0.889600
     17 O24          3.3220    -2.3430     1.1460 o          1 ALR      -0.838300
     18 O27          5.4290    -1.6790     1.0840 o          1 ALR      -0.838300
     19 H71          3.9530     0.4980     0.2250 h1         1 ALR       0.066700
     20 H72          4.0010     0.5100     1.9930 h1         1 ALR       0.066700
     21 H10         -3.8160     0.0330     2.5760 ha         1 ALR       0.123000
     22 H11         -2.5100     0.0430     4.6310 ha         1 ALR       0.123500
     23 H12         -0.0520     0.0340     4.5800 ha         1 ALR       0.155000
     24 H16         -0.2360    -0.0160    -2.1310 ha         1 ALR       0.155000
     25 H17         -2.6920    -0.0050    -2.0480 ha         1 ALR       0.123500
     26 H18         -3.8850     0.0150     0.0760 ha         1 ALR       0.123000
     27 C7           3.6140    -0.0060     1.1220 c3         1 ALR      -0.023000
@<TRIPOS>BOND
     1     1     4 1
     2     1     7 ar
     3     1    12 ar
     4     2     3 1
     5     2     7 ar
     6     2    11 ar
     7     3     5 2
     8     3    15 1
     9     4     6 2
    10     4    15 1
    11    27    15 1
    12    27    16 1
    13    27    19 1
    14    27    20 1
    15     7     8 ar
    16     8     9 ar
    17     8    14 ar
    18     9    10 ar
    19     9    21 1
    20    10    11 ar
    21    10    22 1
    22    11    23 1
    23    12    13 ar
    24    12    24 1
    25    13    14 ar
    26    13    25 1
    27    14    26 1
    28    16    17 1
    29    16    18 1
@<TRIPOS>SUBSTRUCTURE
     1 ALR         1 TEMP              0 ****  ****    0 ROOT
