@<TRIPOS>MOLECULE
ALU
   14    13     1     0     0
SMALL
bcc


@<TRIPOS>ATOM
      1 O3         -0.1000   -0.0230   -0.1040 os        1 ALU     -0.567200
      2 C5          1.2700    0.0650    0.1310 c3        1 ALU      0.159700
      3 C3         -3.4610   -0.1820    1.9980 c3        1 ALU     -0.238100
      4 C2         -2.5650   -0.1520    0.8090 c         1 ALU      0.425100
      5 O5         -2.9890   -0.2020   -0.3510 o         1 ALU     -0.528100
      6 O2         -0.5940   -1.3080    2.0040 o         1 ALU     -0.841500
      7 O1         -0.7510    1.2860    1.9460 o         1 ALU     -0.841500
      8 P1         -0.9460   -0.0420    1.3210 p5        1 ALU      1.220400
      9 H5C1        1.4930    1.0090    0.6940 h1        1 ALU      0.012033
     10 H5C2        1.7930    0.0750   -0.8590 h1        1 ALU      0.012033
     11 H5C3        1.6030   -0.8190    0.7350 h1        1 ALU      0.012033
     12 H3C1       -4.5430   -0.2530    1.7430 hc        1 ALU      0.058700
     13 H3C2       -3.2710    0.7520    2.5860 hc        1 ALU      0.058700
     14 H3C3       -3.1600   -1.0600    2.6240 hc        1 ALU      0.058700
@<TRIPOS>BOND
     1    1    2 1   
     2    1    8 1   
     3    2    9 1   
     4    2   10 1   
     5    2   11 1   
     6    3    4 1   
     7    3   12 1   
     8    3   13 1   
     9    3   14 1   
    10    4    5 2   
    11    4    8 1   
    12    6    8 1   
    13    7    8 1   
@<TRIPOS>SUBSTRUCTURE
     1 ALU         1 TEMP              0 ****  ****    0 ROOT
