@<TRIPOS>MOLECULE
molecule
   14    13     1     0     0
SMALL
bcc


@<TRIPOS>ATOM
      1 O3           0.0000     0.0000     0.0000 os         1 ALU      -0.599200
      2 C5           1.4290     0.0000     0.0000 c3         1 ALU       0.219700
      3 C3          -3.6720    -0.1730     2.0220 c3         1 ALU      -0.197100
      4 C2          -2.6340    -0.1490     0.9290 c          1 ALU       0.474100
      5 O5          -2.9750    -0.2290    -0.2270 o          1 ALU      -0.555100
      6 O2          -0.4740    -1.1430     2.2000 o          1 ALU      -0.800000
      7 O1          -0.6300     1.3760     2.1500 o          1 ALU      -0.800000
      8 P1          -0.8770     0.0000     1.3500 p5         1 ALU       1.074400
      9 H5C1         1.7910    -0.9600     0.3490 h1         1 ALU       0.012700
     10 H5C2         1.7910     0.7820     0.6570 h1         1 ALU       0.012700
     11 H5C3         1.7900     0.1780    -1.0060 h1         1 ALU       0.012700
     12 H3C1        -4.6570    -0.2720     1.5830 hc         1 ALU       0.047700
     13 H3C2        -3.6200     0.7490     2.5890 hc         1 ALU       0.047700
     14 H3C3        -3.4840    -1.0130     2.6800 hc         1 ALU       0.047700
@<TRIPOS>BOND
     1     1     2 1
     2     1     8 1
     3     3     4 1
     4     4     5 2
     5     4     8 1
     6     7     8 1
     7     6     8 1
     8     2     9 1
     9     2    10 1
    10     2    11 1
    11     3    12 1
    12     3    13 1
    13     3    14 1
@<TRIPOS>SUBSTRUCTURE
     1 ALU         1 TEMP              0 ****  ****    0 ROOT
