@<TRIPOS>MOLECULE
molecule
   34    35     1     0     0
SMALL
bcc


@<TRIPOS>ATOM
      1 S1           0.0000     0.0000     0.0000 sx         1 ALW       0.350400
      2 C11          1.8130     0.0000     0.0000 c3         1 ALW      -0.092100
      3 CX5          2.3230     0.0000     1.4430 c3         1 ALW      -0.059400
      4 C            3.8530     0.0010     1.4420 c3         1 ALW      -0.086100
      5 N           -0.8300     2.1830    -4.7030 nc         1 ALW      -0.634100
      6 C7          -1.0380     1.6560    -5.8820 cd         1 ALW       0.504400
      7 N1          -1.0210     0.2950    -5.7910 na         1 ALW      -0.264300
      8 C3A         -0.7870    -0.0260    -4.4650 ca         1 ALW      -0.067200
      9 C7A         -0.6670     1.1950    -3.7840 ca         1 ALW       0.093400
     10 C1          -0.6650    -1.2200    -3.7720 ca         1 ALW      -0.136000
     11 C2          -0.4250    -1.2040    -2.4140 ca         1 ALW      -0.066000
     12 C3          -0.3060     0.0010    -1.7360 ca         1 ALW      -0.132500
     13 C4          -0.4300     1.1950    -2.4070 ca         1 ALW       0.012000
     14 C5          -1.4500     1.7230    -8.2100 c          1 ALW       0.770100
     15 O           -1.6510     2.4210    -9.3450 os         1 ALW      -0.437900
     16 C6          -1.8720     1.7220   -10.5980 c3         1 ALW       0.166700
     17 O1          -1.4540     0.5100    -8.2350 o          1 ALW      -0.617000
     18 O2          -0.4740     1.2970     0.3340 o          1 ALW      -0.521200
     19 H111         2.1740    -0.8850    -0.5110 h1         1 ALW       0.079700
     20 H112         2.1740     0.8840    -0.5110 h1         1 ALW       0.079700
     21 H3'1         1.9620     0.8840     1.9530 hc         1 ALW       0.043200
     22 H3'2         1.9630    -0.8850     1.9530 hc         1 ALW       0.043200
     23 HC1          4.2140     0.8930     0.9440 hc         1 ALW       0.035033
     24 HC2          4.2140    -0.8760     0.9180 hc         1 ALW       0.035033
     25 HC3          4.2150    -0.0140     2.4630 hc         1 ALW       0.035033
     26 H1          -1.1540    -0.3520    -6.5430 hn         1 ALW       0.341700
     27 H2          -0.7570    -2.1640    -4.2960 ha         1 ALW       0.130000
     28 HB          -0.3320    -2.1370    -1.8720 ha         1 ALW       0.128000
     29 H4          -0.4360     2.1280    -1.8570 ha         1 ALW       0.172000
     30 HA          -1.2500     3.3730    -7.0260 hn         1 ALW       0.367500
     31 H6C1        -2.0130     2.4430   -11.3930 h1         1 ALW       0.054700
     32 H6C2        -1.0120     1.1010   -10.8210 h1         1 ALW       0.054700
     33 H6C3        -2.7550     1.1000   -10.5130 h1         1 ALW       0.054700
     34 N2          -1.2440     2.3730    -7.0480 ns         1 ALW      -0.438400
@<TRIPOS>BOND
     1     1     2 1
     2     1    12 1
     3     1    18 2
     4     2     3 1
     5     2    19 1
     6     2    20 1
     7     3     4 1
     8     3    21 1
     9     3    22 1
    10     4    23 1
    11     4    24 1
    12     4    25 1
    13     5     6 2
    14     5     9 1
    15     6     7 1
    16     6    34 1
    17     7     8 1
    18     7    26 1
    19     8     9 ar
    20     8    10 ar
    21     9    13 ar
    22    10    11 ar
    23    10    27 1
    24    11    12 ar
    25    11    28 1
    26    12    13 ar
    27    13    29 1
    28    34    14 1
    29    34    30 1
    30    14    15 1
    31    14    17 2
    32    15    16 1
    33    16    31 1
    34    16    32 1
    35    16    33 1
@<TRIPOS>SUBSTRUCTURE
     1 ALW         1 TEMP              0 ****  ****    0 ROOT
