@<TRIPOS>MOLECULE
ALW
   34    35     1     0     0
SMALL
bcc


@<TRIPOS>ATOM
      1 S1           0.0000     0.0000     0.0000 sx         1 ALW       0.023400
      2 C11          1.8130     0.0000     0.0000 c3         1 ALW       0.093900
      3 CX5          2.3230     0.0000     1.4430 c3         1 ALW       0.004600
      4 C            3.8530     0.0010     1.4420 c3         1 ALW       0.005900
      5 N           -0.8300     2.1830    -4.7030 nc         1 ALW      -0.550100
      6 C7          -1.0380     1.6560    -5.8820 cd         1 ALW       0.140400
      7 N1          -1.0210     0.2950    -5.7910 na         1 ALW       0.250700
      8 C3A         -0.7870    -0.0260    -4.4650 ca         1 ALW      -0.246200
      9 C7A         -0.6670     1.1950    -3.7840 ca         1 ALW       0.059400
     10 C1          -0.6650    -1.2200    -3.7720 ca         1 ALW      -0.102000
     11 C2          -0.4250    -1.2040    -2.4140 ca         1 ALW      -0.031000
     12 C3          -0.3060     0.0010    -1.7360 ca         1 ALW      -0.023500
     13 C4          -0.4300     1.1950    -2.4070 ca         1 ALW       0.045000
     14 C5          -1.4500     1.7230    -8.2100 c          1 ALW       0.677100
     15 O           -1.6510     2.4210    -9.3450 os         1 ALW      -0.424900
     16 C6          -1.8720     1.7220   -10.5980 c3         1 ALW       0.297700
     17 O1          -1.4540     0.5100    -8.2350 o          1 ALW      -0.677000
     18 O2          -0.4740     1.2970     0.3340 o          1 ALW      -0.466200
     19 H111         2.1740    -0.8850    -0.5110 h1         1 ALW       0.053200
     20 H112         2.1740     0.8840    -0.5110 h1         1 ALW       0.053200
     21 H3'1         1.9620     0.8840     1.9530 hc         1 ALW       0.020200
     22 H3'2         1.9630    -0.8850     1.9530 hc         1 ALW       0.020200
     23 HC1          4.2140     0.8930     0.9440 hc         1 ALW       0.002033
     24 HC2          4.2140    -0.8760     0.9180 hc         1 ALW       0.002033
     25 HC3          4.2150    -0.0140     2.4630 hc         1 ALW       0.002033
     26 H1          -1.1540    -0.3520    -6.5430 hn         1 ALW       0.183700
     27 H2          -0.7570    -2.1640    -4.2960 ha         1 ALW       0.105000
     28 HB          -0.3320    -2.1370    -1.8720 ha         1 ALW       0.105000
     29 H4          -0.4360     2.1280    -1.8570 ha         1 ALW       0.141000
     30 HA          -1.2500     3.3730    -7.0260 hn         1 ALW       0.188500
     31 H6C1        -2.0130     2.4430   -11.3930 h1         1 ALW       0.002367
     32 H6C2        -1.0120     1.1010   -10.8210 h1         1 ALW       0.002367
     33 H6C3        -2.7550     1.1000   -10.5130 h1         1 ALW       0.002367
     34 N2          -1.2440     2.3730    -7.0480 ns         1 ALW       0.039600
@<TRIPOS>BOND
     1     1     2 1   
     2     1    12 1   
     3     1    18 2   
     4     2     3 1   
     5     2    19 1   
     6     2    20 1   
     7     3     4 1   
     8     3    21 1   
     9     3    22 1   
    10     4    23 1   
    11     4    24 1   
    12     4    25 1   
    13     5     6 2   
    14     5     9 1   
    15     6     7 1   
    16     6    34 1   
    17     7     8 1   
    18     7    26 1   
    19     8     9 ar  
    20     8    10 ar  
    21     9    13 ar  
    22    10    11 ar  
    23    10    27 1   
    24    11    12 ar  
    25    11    28 1   
    26    12    13 ar  
    27    13    29 1   
    28    14    15 1   
    29    14    17 2   
    30    14    34 1   
    31    15    16 1   
    32    16    31 1   
    33    16    32 1   
    34    16    33 1   
    35    30    34 1   
@<TRIPOS>SUBSTRUCTURE
     1 ALW         1 TEMP              0 ****  ****    0 ROOT
