@<TRIPOS>MOLECULE
AM0
   58    62     1     0     0
SMALL
bcc


@<TRIPOS>ATOM
      1 N3           0.0000     0.0000     0.0000 nb         1 AM0      -0.763000
      2 C7           1.3210     0.0000     0.0000 ca         1 AM0       0.746900
      3 N4           1.9850     0.0000     1.1430 nb         1 AM0      -0.751000
      4 C8           1.3260     0.0000     2.2980 ca         1 AM0       0.634500
      5 N5          -0.0020     0.0000     2.3030 nb         1 AM0      -0.797000
      6 C10         -0.6670    -0.0000     1.1520 ca         1 AM0       0.762900
      7 N2          -2.0480    -0.0000     1.1520 nu         1 AM0      -0.254300
      8 C11         -2.2440    -0.5220    -1.1970 ca         1 AM0      -0.256000
      9 C13         -2.7480     0.0900    -0.0570 ca         1 AM0       0.048600
     10 C14         -3.9460     0.7900    -0.1150 ca         1 AM0      -0.256000
     11 C15         -4.6400     0.8780    -1.3120 ca         1 AM0       0.180100
     12 C16         -4.1360     0.2660    -2.4540 ca         1 AM0       0.039100
     13 C17         -2.9380    -0.4340    -2.3940 ca         1 AM0       0.180100
     14 O1          -4.8180     0.3520    -3.6290 os         1 AM0      -0.309900
     15 O2          -2.4440    -1.0330    -3.5110 os         1 AM0      -0.289400
     16 C9          -4.5070     1.4580    -4.4800 c3         1 AM0       0.250700
     17 C1           6.0090    -0.0030     4.5990 ca         1 AM0      -0.094000
     18 C2           4.9650    -0.0030     5.4970 ca         1 AM0      -0.068000
     19 C3           3.6480    -0.0030     5.0300 ca         1 AM0       0.111400
     20 C4           3.4050    -0.0010     3.6470 ca         1 AM0      -0.274200
     21 C5           4.4680    -0.0010     2.7580 ca         1 AM0      -0.056000
     22 C6           5.7630    -0.0020     3.2340 ca         1 AM0      -0.116000
     23 N6           2.4390    -0.0020     5.6500 nc         1 AM0      -0.585100
     24 C12          1.4830    -0.0020     4.7560 cd         1 AM0       0.339700
     25 N7           2.0260    -0.0010     3.4970 na         1 AM0       0.308900
     26 O3          -5.8130     1.5640    -1.3670 os         1 AM0      -0.289400
     27 C18         -1.2070    -1.7360    -3.3780 c3         1 AM0       0.240200
     28 C19         -6.2710     2.1660    -0.1560 c3         1 AM0       0.240200
     29 C20         -1.9720    -0.2640     8.0400 ca         1 AM0      -0.076500
     30 C21         -1.1730     0.3680     8.9750 ca         1 AM0      -0.127000
     31 C22          0.0580     0.8790     8.6050 ca         1 AM0      -0.076500
     32 C23          0.4940     0.7570     7.3020 ca         1 AM0      -0.137000
     33 C24         -0.3060     0.1230     6.3590 ca         1 AM0       0.006600
     34 C25         -1.5420    -0.3890     6.7330 ca         1 AM0      -0.137000
     35 H7           1.8610     0.0000    -0.9390 h5         1 AM0       0.005100
     36 HN2         -2.5480    -0.1100     2.0130 hn         1 AM0       0.293800
     37 H11         -1.3100    -1.0680    -1.1520 ha         1 AM0       0.146000
     38 H14         -4.3380     1.2670     0.7750 ha         1 AM0       0.146000
     39 H9          -4.1180     1.0910    -5.4210 h1         1 AM0      -0.008967
     40 H9A         -5.4050     2.0370    -4.6620 h1         1 AM0      -0.008967
     41 H9B         -3.7640     2.0840    -4.0010 h1         1 AM0      -0.008967
     42 H1           7.0300    -0.0030     4.9610 ha         1 AM0       0.103000
     43 H2           5.1640    -0.0030     6.5620 ha         1 AM0       0.112000
     44 H5           4.2830    -0.0010     1.6900 ha         1 AM0       0.127000
     45 H6           6.5930    -0.0020     2.5380 ha         1 AM0       0.105000
     46 HN1         -0.5330    -0.1140     4.2980 hn         1 AM0       0.317800
     47 H18         -0.4230    -1.0390    -3.1080 h1         1 AM0      -0.000967
     48 H18A        -0.9590    -2.2120    -4.3190 h1         1 AM0      -0.000967
     49 H18B        -1.3020    -2.4900    -2.6060 h1         1 AM0      -0.000967
     50 H19         -7.2080     2.6780    -0.3400 h1         1 AM0      -0.000967
     51 H19A        -6.4190     1.4000     0.5950 h1         1 AM0      -0.000967
     52 H19B        -5.5330     2.8780     0.1940 h1         1 AM0      -0.000967
     53 H21         -1.5130     0.4640     9.9990 ha         1 AM0       0.102000
     54 H22          0.6810     1.3730     9.3400 ha         1 AM0       0.100500
     55 H23          1.4580     1.1580     7.0130 ha         1 AM0       0.127000
     56 H25         -2.1680    -0.8850     6.0010 ha         1 AM0       0.127000
     57 N1           0.1320    -0.0010     5.0370 nu         1 AM0      -0.253600
     58 H20         -2.9350    -0.6640     8.3320 ha         1 AM0       0.100500
@<TRIPOS>BOND
     1     1     2 ar  
     2     1     6 ar  
     3     2     3 ar  
     4     2    35 1   
     5     3     4 ar  
     6     4     5 ar  
     7     4    25 1   
     8     5     6 ar  
     9     6     7 1   
    10     7     9 1   
    11     7    36 1   
    12     8     9 ar  
    13     8    13 ar  
    14     8    37 1   
    15     9    10 ar  
    16    10    11 ar  
    17    10    38 1   
    18    11    12 ar  
    19    11    26 1   
    20    12    13 ar  
    21    12    14 1   
    22    13    15 1   
    23    14    16 1   
    24    15    27 1   
    25    16    39 1   
    26    16    40 1   
    27    16    41 1   
    28    17    18 ar  
    29    17    22 ar  
    30    17    42 1   
    31    18    19 ar  
    32    18    43 1   
    33    19    20 ar  
    34    19    23 1   
    35    20    21 ar  
    36    20    25 1   
    37    21    22 ar  
    38    21    44 1   
    39    22    45 1   
    40    23    24 2   
    41    24    25 1   
    42    24    57 1   
    43    26    28 1   
    44    27    47 1   
    45    27    48 1   
    46    27    49 1   
    47    28    50 1   
    48    28    51 1   
    49    28    52 1   
    50    29    30 ar  
    51    29    34 ar  
    52    29    58 1   
    53    30    31 ar  
    54    30    53 1   
    55    31    32 ar  
    56    31    54 1   
    57    32    33 ar  
    58    32    55 1   
    59    33    34 ar  
    60    33    57 1   
    61    34    56 1   
    62    46    57 1   
@<TRIPOS>SUBSTRUCTURE
     1 AM0         1 TEMP              0 ****  ****    0 ROOT
