@<TRIPOS>MOLECULE
AM1
   24    24     1     0     0
SMALL
bcc


@<TRIPOS>ATOM
      1 O1          0.1980   -0.1620   -0.6260 o         1 AM1     -0.801800
      2 C1          1.2460   -0.8290   -0.7530 c         1 AM1      0.839100
      3 O2          1.5220   -1.8610   -0.0520 o         1 AM1     -0.801800
      4 C2          2.2840   -0.4070   -1.7740 cc        1 AM1      0.273800
      5 N1          2.1020   -0.3290   -3.1010 nd        1 AM1     -0.367300
      6 O3          3.2290    0.0650   -3.6790 os        1 AM1     -0.154100
      7 C3          4.2280    0.2690   -2.7010 cd        1 AM1      0.280000
      8 C4          3.6720   -0.0230   -1.4670 cc        1 AM1     -0.342900
      9 C5          4.2890    0.0750   -0.1400 c3        1 AM1     -0.002100
     10 C6          5.0230   -1.1900    0.3100 c3        1 AM1     -0.027500
     11 N2          4.2310   -2.4250    0.0550 n4        1 AM1     -0.855600
     12 C7          6.4530   -1.2970   -0.3550 c         1 AM1      0.918600
     13 O4          7.1700   -0.2720   -0.3000 o         1 AM1     -0.800300
     14 O5          6.7550   -2.4130   -0.8600 o         1 AM1     -0.800300
     15 C8          5.5490    0.6980   -3.1540 c3        1 AM1     -0.152400
     16 H2          3.4880    0.3240    0.6100 hc        1 AM1      0.077200
     17 H3          5.0580    0.8980   -0.1320 hc        1 AM1      0.077200
     18 H4          5.1950   -1.1130    1.4210 hx        1 AM1      0.068700
     19 H5          4.6820   -2.9250   -0.7230 hn        1 AM1      0.454133
     20 H6          3.2280   -2.1920   -0.1870 hn        1 AM1      0.454133
     21 H8          5.8250    0.1840   -4.1080 hc        1 AM1      0.070033
     22 H9          6.3120    0.4490   -2.3650 hc        1 AM1      0.070033
     23 H10         5.5540    1.8020   -3.3310 hc        1 AM1      0.070033
     24 H23         4.2440   -3.0230    0.8730 hn        1 AM1      0.454133
@<TRIPOS>BOND
     1    1    2 1
     2    2    3 1
     3    2    4 1
     4    4    5 2
     5    4    8 1
     6    5    6 1
     7    6    7 1
     8    7    8 2
     9    7   15 1
    10    8    9 1
    11    9   10 1
    12    9   16 1
    13    9   17 1
    14   10   11 1
    15   10   12 1
    16   10   18 1
    17   11   19 1
    18   11   20 1
    19   11   24 1
    20   12   13 1
    21   12   14 1
    22   15   21 1
    23   15   22 1
    24   15   23 1
@<TRIPOS>SUBSTRUCTURE
     1 AM1         1 TEMP              0 ****  ****    0 ROOT
