@<TRIPOS>MOLECULE
AM3
   50    51     1     0     0
SMALL
bcc


@<TRIPOS>ATOM
      1 O4           0.0000     0.0000     0.0000 oh         1 AM3      -0.565800
      2 C4           1.4300     0.0000     0.0000 c3         1 AM3       0.159100
      3 C5           1.9450     0.0000     1.4420 c3         1 AM3       0.092500
      4 C6           1.1630     1.0190     2.2960 c3         1 AM3       0.195400
      5 O6           0.9170     0.2800     3.5110 os         1 AM3      -0.421400
      6 C3           1.9430    -1.2610    -0.7030 c3         1 AM3       0.159100
      7 O3           1.5410    -1.2350    -2.0740 oh         1 AM3      -0.574800
      8 C2           1.3790    -2.5160    -0.0370 c3         1 AM3       0.133100
      9 O2           1.8340    -3.6740    -0.7410 oh         1 AM3      -0.586800
     10 C1           1.8510    -2.5870     1.4230 c3         1 AM3       0.419300
     11 O1           1.1580    -3.6320     2.1090 oh         1 AM3      -0.536800
     12 N1           1.5460    -1.2930     2.0430 nh         1 AM3      -0.495600
     13 C7           0.8320    -1.0290     3.1750 c2         1 AM3       0.683500
     14 N2           0.1570    -1.9180     3.8430 n2         1 AM3      -0.645900
     15 C8          -0.5770    -1.5250     5.0490 c3         1 AM3       0.180800
     16 C9          -2.0780    -1.7080     4.8150 c3         1 AM3      -0.031400
     17 C10         -2.8450    -1.2990     6.0730 c3         1 AM3      -0.029400
     18 C11         -4.3460    -1.4820     5.8380 c3         1 AM3      -0.028400
     19 C12         -5.1130    -1.0730     7.0970 c3         1 AM3      -0.030400
     20 C13         -6.6130    -1.2560     6.8620 c3         1 AM3      -0.030400
     21 C14         -7.3800    -0.8460     8.1220 c3         1 AM3      -0.028400
     22 C15         -8.8810    -1.0300     7.8860 c3         1 AM3       0.005900
     23 H4          -0.3140     0.6240    -0.6330 ho         1 AM3       0.398000
     24 HA           1.7990     0.8780    -0.5160 h1         1 AM3       0.009700
     25 H5           3.0150     0.1590     1.4950 h1         1 AM3       0.043700
     26 H3           3.0240    -1.2840    -0.6440 h1         1 AM3       0.010700
     27 H61C         0.2040     1.1710     1.8150 h1         1 AM3       0.043200
     28 H62C         1.8470     1.8210     2.5430 h1         1 AM3       0.043200
     29 HB           2.2970    -1.0980    -2.6200 ho         1 AM3       0.392000
     30 H2           0.2960    -2.4780    -0.0610 h1         1 AM3       0.050700
     31 HC           1.0920    -4.1820    -1.0220 ho         1 AM3       0.404000
     32 H81C        -0.3710    -0.4860     5.2750 h1         1 AM3       0.005700
     33 H82C        -0.2630    -2.1450     5.8810 h1         1 AM3       0.005700
     34 H91C        -2.3920    -1.0890     3.9830 hc         1 AM3       0.019700
     35 H92C        -2.2840    -2.7480     4.5890 hc         1 AM3       0.019700
     36 H101        -2.6390    -0.2600     6.2990 hc         1 AM3       0.012700
     37 H102        -2.5320    -1.9180     6.9040 hc         1 AM3       0.012700
     38 H111        -4.6590    -0.8630     5.0060 hc         1 AM3       0.014700
     39 H112        -4.5520    -2.5210     5.6110 hc         1 AM3       0.014700
     40 H121        -4.7990    -1.6920     7.9290 hc         1 AM3       0.014200
     41 H122        -4.9070    -0.0330     7.3230 hc         1 AM3       0.014200
     42 H131        -6.8190    -2.2950     6.6360 hc         1 AM3       0.014200
     43 H132        -6.9270    -0.6360     6.0310 hc         1 AM3       0.014200
     44 H141        -7.0660    -1.4650     8.9530 hc         1 AM3       0.011700
     45 H142        -7.1750     0.1930     8.3480 hc         1 AM3       0.011700
     46 H151        -9.1950    -0.4110     7.0540 hc         1 AM3      -0.000633
     47 H152        -9.4240    -0.7400     8.7770 hc         1 AM3      -0.000633
     48 H153        -9.0860    -2.0700     7.6600 hc         1 AM3      -0.000633
     49 H154         1.7550    -4.3380     2.2910 ho         1 AM3       0.394000
     50 H155         2.9200    -2.7650     1.4540 h2         1 AM3       0.002700
@<TRIPOS>BOND
     1     1     2 1   
     2     1    23 1   
     3     2     3 1   
     4     2     6 1   
     5     2    24 1   
     6     3     4 1   
     7     3    12 1   
     8     3    25 1   
     9     4     5 1   
    10     4    27 1   
    11     4    28 1   
    12     5    13 1   
    13     6     7 1   
    14     6     8 1   
    15     6    26 1   
    16     7    29 1   
    17     8     9 1   
    18     8    10 1   
    19     8    30 1   
    20     9    31 1   
    21    10    11 1   
    22    10    12 1   
    23    10    50 1   
    24    11    49 1   
    25    12    13 1   
    26    13    14 2   
    27    14    15 1   
    28    15    16 1   
    29    15    32 1   
    30    15    33 1   
    31    16    17 1   
    32    16    34 1   
    33    16    35 1   
    34    17    18 1   
    35    17    36 1   
    36    17    37 1   
    37    18    19 1   
    38    18    38 1   
    39    18    39 1   
    40    19    20 1   
    41    19    40 1   
    42    19    41 1   
    43    20    21 1   
    44    20    42 1   
    45    20    43 1   
    46    21    22 1   
    47    21    44 1   
    48    21    45 1   
    49    22    46 1   
    50    22    47 1   
    51    22    48 1   
@<TRIPOS>SUBSTRUCTURE
     1 AM3         1 TEMP              0 ****  ****    0 ROOT
