@<TRIPOS>MOLECULE
molecule
   24    24     1     0     0
SMALL
bcc


@<TRIPOS>ATOM
      1 C2           0.0000     0.0000     0.0000 ca         1 AM4      -0.016000
      2 C3           1.3800     0.0000     0.0000 ca         1 AM4      -0.108500
      3 C4           2.0740     0.0000     1.2100 ca         1 AM4      -0.150900
      4 C11          3.5550    -0.0050     1.2180 ce         1 AM4       0.535800
      5 N13          4.2000    -0.0050     2.3490 n2         1 AM4      -0.669100
      6 N12          4.2500    -0.0100     0.0270 nz         1 AM4      -0.802600
      7 C5           1.3680     0.0050     2.4120 ca         1 AM4      -0.108500
      8 C6          -0.0120     0.0100     2.3990 ca         1 AM4      -0.016000
      9 C1          -0.6950     0.0110     1.1960 ca         1 AM4      -0.248500
     10 S7          -2.4570     0.0170     1.1870 sy         1 AM4       1.178300
     11 C10         -2.8630     1.7850     1.1820 c3         1 AM4      -0.217300
     12 O9          -2.7800    -0.5910     2.4300 o          1 AM4      -0.591300
     13 O8          -2.7680    -0.5950    -0.0570 o          1 AM4      -0.591300
     14 H2          -0.5400     0.0000    -0.9390 ha         1 AM4       0.180000
     15 H3           1.9240    -0.0090    -0.9370 ha         1 AM4       0.143000
     16 H13          5.2010    -0.0090     2.3550 hn         1 AM4       0.436400
     17 H121         5.2330     0.0020     0.2150 hn         1 AM4       0.466467
     18 H122         4.0200    -0.8360    -0.4900 hn         1 AM4       0.466467
     19 H5           1.9010     0.0050     3.3550 ha         1 AM4       0.143000
     20 H6          -0.5610     0.0170     3.3330 ha         1 AM4       0.180000
     21 H101        -2.3360     2.2740     0.3720 h1         1 AM4       0.107367
     22 H102        -3.9310     1.9100     1.0450 h1         1 AM4       0.107367
     23 H103        -2.5660     2.2270     2.1250 h1         1 AM4       0.107367
     24 H123         4.0110     0.8040    -0.5020 hn         1 AM4       0.466467
@<TRIPOS>BOND
     1     1     2 ar
     2     1     9 ar
     3     1    14 1
     4     2     3 ar
     5     2    15 1
     6     3     4 1
     7     3     7 ar
     8     4     5 2
     9     4     6 1
    10     5    16 1
    11     6    17 1
    12     6    18 1
    13     7     8 ar
    14     7    19 1
    15     8     9 ar
    16     8    20 1
    17     9    10 1
    18    10    11 1
    19    10    12 2
    20    10    13 2
    21    11    21 1
    22    11    22 1
    23    11    23 1
    24    24     6 1
@<TRIPOS>SUBSTRUCTURE
     1 AM4         1 TEMP              0 ****  ****    0 ROOT
