@<TRIPOS>MOLECULE
AM4
   24    24     1     0     0
SMALL
bcc


@<TRIPOS>ATOM
      1 C2           0.0000     0.0000     0.0000 ca         1 AM4       0.037500
      2 C3           1.3800     0.0000     0.0000 ca         1 AM4      -0.108500
      3 C4           2.0740     0.0000     1.2100 ca         1 AM4      -0.185900
      4 C11          3.5550    -0.0050     1.2180 ce         1 AM4       0.202800
      5 N13          4.2000    -0.0050     2.3490 n2         1 AM4      -0.475100
      6 N12          4.2500    -0.0100     0.0270 nz         1 AM4       0.190400
      7 C5           1.3680     0.0050     2.4120 ca         1 AM4      -0.108500
      8 C6          -0.0120     0.0100     2.3990 ca         1 AM4       0.037500
      9 C1          -0.6950     0.0110     1.1960 ca         1 AM4      -0.121500
     10 S7          -2.4570     0.0170     1.1870 sy         1 AM4       0.875300
     11 C10         -2.8630     1.7850     1.1820 c3         1 AM4       0.039700
     12 O9          -2.7800    -0.5910     2.4300 o          1 AM4      -0.564300
     13 O8          -2.7680    -0.5950    -0.0570 o          1 AM4      -0.564300
     14 H2          -0.5400     0.0000    -0.9390 ha         1 AM4       0.145500
     15 H3           1.9240    -0.0090    -0.9370 ha         1 AM4       0.102000
     16 H13          3.6960    -0.0020     3.2140 hn         1 AM4       0.382400
     17 H121         3.9960    -0.8200    -0.5040 hn         1 AM4       0.222800
     18 H122         5.2330    -0.0300     0.2150 hn         1 AM4       0.222800
     19 H5           1.9010     0.0050     3.3550 ha         1 AM4       0.102000
     20 H6          -0.5610     0.0170     3.3330 ha         1 AM4       0.145500
     21 H101        -3.9300     1.9100     1.0400 h1         1 AM4       0.066367
     22 H102        -2.3320     2.2750     0.3750 h1         1 AM4       0.066367
     23 H103        -2.5710     2.2260     2.1270 h1         1 AM4       0.066367
     24 H123         4.0360     0.8200    -0.4880 hn         1 AM4       0.222800
@<TRIPOS>BOND
     1     1     2 ar  
     2     1     9 ar  
     3     1    14 1   
     4     2     3 ar  
     5     2    15 1   
     6     3     4 1   
     7     3     7 ar  
     8     4     5 2   
     9     4     6 1   
    10     5    16 1   
    11     6    17 1   
    12     6    18 1   
    13     6    24 1   
    14     7     8 ar  
    15     7    19 1   
    16     8     9 ar  
    17     8    20 1   
    18     9    10 1   
    19    10    11 1   
    20    10    12 2   
    21    10    13 2   
    22    11    21 1   
    23    11    22 1   
    24    11    23 1   
@<TRIPOS>SUBSTRUCTURE
     1 AM4         1 TEMP              0 ****  ****    0 ROOT
