@<TRIPOS>MOLECULE
AM5
   73    77     1     0     0
SMALL
bcc


@<TRIPOS>ATOM
      1 C7           0.0000     0.0000     0.0000 ca         1 AM5      -0.125000
      2 C9           1.3810     0.0000     0.0000 ca         1 AM5      -0.052000
      3 C10          2.0820     0.0000     1.2090 ca         1 AM5      -0.184600
      4 C11          3.5600     0.0010     1.2080 c          1 AM5       0.594700
      5 N3           4.2330    -0.0010     0.0400 ns         1 AM5      -0.035100
      6 C14          5.6280     0.0950     0.0370 ca         1 AM5      -0.097400
      7 C15          6.3690    -0.5140     1.0400 ca         1 AM5      -0.071000
      8 C19          7.7470    -0.4180     1.0340 ca         1 AM5      -0.087000
      9 C18          8.3890     0.2830     0.0300 ca         1 AM5      -0.059000
     10 C17          7.6540     0.8910    -0.9710 ca         1 AM5      -0.194300
     11 C16          6.2760     0.7940    -0.9740 ca         1 AM5      -0.071000
     12 C20          8.3560     1.6560    -2.0630 c3         1 AM5       0.640200
     13 F1           9.7380     1.6080    -1.8500 f          1 AM5      -0.207967
     14 F3           8.0560     1.0810    -3.3030 f          1 AM5      -0.207967
     15 F2           7.9290     2.9870    -2.0500 f          1 AM5      -0.207967
     16 C12          1.3840     0.0010     2.4150 ca         1 AM5      -0.007000
     17 C13         -0.0080     0.0010     2.4080 ca         1 AM5      -0.181600
     18 C21         -0.6970     0.0000     1.1920 ca         1 AM5       0.018700
     19 C22         -2.2040    -0.0000     1.1810 c3         1 AM5       0.042200
     20 N1          -2.5200    -0.8860     7.3470 nb         1 AM5      -0.670500
     21 C23         -1.8900    -0.8160     6.1860 ca         1 AM5       0.475200
     22 C24         -0.7920     0.0320     6.0630 ca         1 AM5      -0.404000
     23 C25         -0.4010     0.7760     7.1730 ca         1 AM5       0.475200
     24 N4          -1.0810     0.6540     8.3010 nb         1 AM5      -0.670500
     25 C26         -2.1210    -0.1630     8.3820 ca         1 AM5       0.689900
     26 N6          -0.0970     0.1330     4.8510 ns         1 AM5      -0.011100
     27 C8          -0.7570     0.0010     3.6820 c          1 AM5       0.586700
     28 O2          -1.9670    -0.1170     3.6780 o          1 AM5      -0.643100
     29 N7          -2.8090    -0.2640     9.5810 nu         1 AM5      -0.280300
     30 C27         -2.2540     0.9430    13.0120 ca         1 AM5      -0.128500
     31 C28         -1.8220     2.2400    12.7680 ca         1 AM5       0.009600
     32 C29         -1.7180     2.7030    11.4620 ca         1 AM5      -0.128500
     33 C30         -2.0450     1.8740    10.4080 ca         1 AM5      -0.093000
     34 C5          -2.4770     0.5770    10.6520 ca         1 AM5      -0.028400
     35 C31         -2.5810     0.1140    11.9560 ca         1 AM5      -0.093000
     36 C1          -2.1880     4.0660    15.9660 c3         1 AM5       0.152800
     37 N2          -1.7580     5.3860    15.4850 n3         1 AM5      -0.549600
     38 C3          -0.6340     5.2600    14.5470 c3         1 AM5       0.152800
     39 C4          -1.0610     4.4010    13.3550 c3         1 AM5       0.136300
     40 N5          -1.4920     3.0800    13.8370 nh         1 AM5      -0.364000
     41 C6          -2.6160     3.2060    14.7740 c3         1 AM5       0.136300
     42 O1           4.1690     0.0010     2.2590 o          1 AM5      -0.641100
     43 H7          -0.5390    -0.0000    -0.9400 ha         1 AM5       0.117000
     44 H9           1.9210    -0.0000    -0.9390 ha         1 AM5       0.100000
     45 HN3          3.7380    -0.1110    -0.8230 hn         1 AM5       0.176500
     46 H15          5.8670    -1.0640     1.8270 ha         1 AM5       0.148000
     47 H19          8.3260    -0.8940     1.8170 ha         1 AM5       0.113000
     48 H18          9.4700     0.3590     0.0280 ha         1 AM5       0.122000
     49 H16          5.7010     1.2710    -1.7580 ha         1 AM5       0.116000
     50 H12          1.9230     0.0010     3.3550 ha         1 AM5       0.125000
     51 H22         -2.5580     0.0500     0.1590 hc         1 AM5       0.026700
     52 H22A        -2.5680    -0.9090     1.6450 hc         1 AM5       0.026700
     53 H22B        -2.5700     0.8580     1.7330 hc         1 AM5       0.026700
     54 H23         -2.2220    -1.4100     5.3440 h4         1 AM5      -0.000400
     55 H25          0.4480     1.4460     7.1130 h4         1 AM5      -0.000400
     56 HN6          0.8650     0.4100     4.8510 hn         1 AM5       0.175500
     57 HN7         -3.5630    -0.9150     9.6720 hn         1 AM5       0.293800
     58 H27         -2.3360     0.5820    14.0300 ha         1 AM5       0.117500
     59 H29         -1.3810     3.7140    11.2710 ha         1 AM5       0.117500
     60 H30         -1.9630     2.2360     9.3900 ha         1 AM5       0.118500
     61 H31         -2.9190    -0.8970    12.1460 ha         1 AM5       0.118500
     62 H1          -1.3650     3.5850    16.4810 h1         1 AM5       0.014700
     63 H1A         -3.0250     4.1850    16.6440 h1         1 AM5       0.014700
     64 H3          -0.3450     6.2440    14.1960 h1         1 AM5       0.014700
     65 H3A          0.2030     4.7900    15.0490 h1         1 AM5       0.014700
     66 H4          -0.2230     4.2820    12.6780 h1         1 AM5       0.023700
     67 H4A         -1.8830     4.8820    12.8400 h1         1 AM5       0.023700
     68 H6          -3.4530     3.6770    14.2730 h1         1 AM5       0.023700
     69 H6A         -2.9050     2.2230    15.1250 h1         1 AM5       0.023700
     70 H2          -2.2660     6.3700    17.2640 h1         1 AM5       0.000700
     71 H2A         -1.1300     7.2430    16.2270 h1         1 AM5       0.000700
     72 H2B         -0.5810     5.8420    17.1580 h1         1 AM5       0.000700
     73 C2          -1.4110     6.2680    16.6070 c3         1 AM5       0.189100
@<TRIPOS>BOND
     1     1     2 ar  
     2     1    18 ar  
     3     1    43 1   
     4     2     3 ar  
     5     2    44 1   
     6     3     4 1   
     7     3    16 ar  
     8     4     5 1   
     9     4    42 2   
    10     5     6 1   
    11     5    45 1   
    12     6     7 ar  
    13     6    11 ar  
    14     7     8 ar  
    15     7    46 1   
    16     8     9 ar  
    17     8    47 1   
    18     9    10 ar  
    19     9    48 1   
    20    10    11 ar  
    21    10    12 1   
    22    11    49 1   
    23    12    13 1   
    24    12    14 1   
    25    12    15 1   
    26    16    17 ar  
    27    16    50 1   
    28    17    18 ar  
    29    17    27 1   
    30    18    19 1   
    31    19    51 1   
    32    19    52 1   
    33    19    53 1   
    34    20    21 ar  
    35    20    25 ar  
    36    21    22 ar  
    37    21    54 1   
    38    22    23 ar  
    39    22    26 1   
    40    23    24 ar  
    41    23    55 1   
    42    24    25 ar  
    43    25    29 1   
    44    26    27 1   
    45    26    56 1   
    46    27    28 2   
    47    29    34 1   
    48    29    57 1   
    49    30    31 ar  
    50    30    35 ar  
    51    30    58 1   
    52    31    32 ar  
    53    31    40 1   
    54    32    33 ar  
    55    32    59 1   
    56    33    34 ar  
    57    33    60 1   
    58    34    35 ar  
    59    35    61 1   
    60    36    37 1   
    61    36    41 1   
    62    36    62 1   
    63    36    63 1   
    64    37    38 1   
    65    37    73 1   
    66    38    39 1   
    67    38    64 1   
    68    38    65 1   
    69    39    40 1   
    70    39    66 1   
    71    39    67 1   
    72    40    41 1   
    73    41    68 1   
    74    41    69 1   
    75    70    73 1   
    76    71    73 1   
    77    72    73 1   
@<TRIPOS>SUBSTRUCTURE
     1 AM5         1 TEMP              0 ****  ****    0 ROOT
