@<TRIPOS>MOLECULE
molecule
   73    77     1     0     0
SMALL
bcc


@<TRIPOS>ATOM
      1 C7           0.0000     0.0000     0.0000 ca         1 AM5      -0.148000
      2 C9           1.3810     0.0000     0.0000 ca         1 AM5      -0.074000
      3 C10          2.0820     0.0000     1.2090 ca         1 AM5      -0.169600
      4 C11          3.5600     0.0010     1.2080 c          1 AM5       0.681700
      5 N3           4.2330    -0.0010     0.0400 ns         1 AM5      -0.475100
      6 C14          5.6280     0.0950     0.0370 ca         1 AM5       0.049600
      7 C15          6.3690    -0.5140     1.0400 ca         1 AM5      -0.100000
      8 C19          7.7470    -0.4180     1.0340 ca         1 AM5      -0.117000
      9 C18          8.3890     0.2830     0.0300 ca         1 AM5      -0.098000
     10 C17          7.6540     0.8910    -0.9710 ca         1 AM5      -0.165300
     11 C16          6.2760     0.7940    -0.9740 ca         1 AM5      -0.113000
     12 C20          8.3560     1.6560    -2.0630 c3         1 AM5       0.675200
     13 F1           9.7380     1.6080    -1.8500 f          1 AM5      -0.223300
     14 F3           8.0560     1.0810    -3.3030 f          1 AM5      -0.223300
     15 F2           7.9290     2.9870    -2.0500 f          1 AM5      -0.223300
     16 C12          1.3840     0.0010     2.4150 ca         1 AM5      -0.036000
     17 C13         -0.0080     0.0010     2.4080 ca         1 AM5      -0.167600
     18 C21         -0.6970     0.0000     1.1920 ca         1 AM5       0.012700
     19 C22         -2.2040    -0.0000     1.1810 c3         1 AM5      -0.051800
     20 N1          -2.5200    -0.8860     7.3470 nb         1 AM5      -0.772000
     21 C23         -1.8900    -0.8160     6.1860 ca         1 AM5       0.484200
     22 C24         -0.7920     0.0320     6.0630 ca         1 AM5      -0.256000
     23 C25         -0.4010     0.7760     7.1730 ca         1 AM5       0.484200
     24 N4          -1.0810     0.6540     8.3010 nb         1 AM5      -0.772000
     25 C26         -2.1210    -0.1630     8.3820 ca         1 AM5       0.921900
     26 N6          -0.0970     0.1330     4.8510 ns         1 AM5      -0.461100
     27 C8          -0.7570     0.0010     3.6820 c          1 AM5       0.677700
     28 O2          -1.9670    -0.1170     3.6780 o          1 AM5      -0.600100
     29 N7          -2.8090    -0.2640     9.5810 nu         1 AM5      -0.752300
     30 C27         -2.2540     0.9430    13.0120 ca         1 AM5      -0.150000
     31 C28         -1.8220     2.2400    12.7680 ca         1 AM5       0.086600
     32 C29         -1.7180     2.7030    11.4620 ca         1 AM5      -0.150000
     33 C30         -2.0450     1.8740    10.4080 ca         1 AM5      -0.121500
     34 C5          -2.4770     0.5770    10.6520 ca         1 AM5       0.133600
     35 C31         -2.5810     0.1140    11.9560 ca         1 AM5      -0.121500
     36 C1          -2.1880     4.0660    15.9660 c3         1 AM5       0.160300
     37 N2          -1.7580     5.3860    15.4850 n3         1 AM5      -0.734600
     38 C3          -0.6340     5.2600    14.5470 c3         1 AM5       0.160300
     39 C4          -1.0610     4.4010    13.3550 c3         1 AM5       0.164800
     40 N5          -1.4920     3.0800    13.8370 nh         1 AM5      -0.598000
     41 C6          -2.6160     3.2060    14.7740 c3         1 AM5       0.164800
     42 O1           4.1690     0.0010     2.2590 o          1 AM5      -0.598100
     43 H7          -0.5390    -0.0000    -0.9400 ha         1 AM5       0.145000
     44 H9           1.9210    -0.0000    -0.9390 ha         1 AM5       0.128000
     45 HN3          3.7380    -0.1110    -0.8230 hn         1 AM5       0.329500
     46 H15          5.8670    -1.0640     1.8270 ha         1 AM5       0.171000
     47 H19          8.3260    -0.8940     1.8170 ha         1 AM5       0.144000
     48 H18          9.4700     0.3590     0.0280 ha         1 AM5       0.151000
     49 H16          5.7010     1.2710    -1.7580 ha         1 AM5       0.143000
     50 H12          1.9230     0.0010     3.3550 ha         1 AM5       0.153000
     51 H22         -2.5580     0.0500     0.1590 hc         1 AM5       0.060700
     52 H22A        -2.5680    -0.9090     1.6450 hc         1 AM5       0.060700
     53 H22B        -2.5700     0.8580     1.7330 hc         1 AM5       0.060700
     54 H23         -2.2220    -1.4100     5.3440 h4         1 AM5       0.043600
     55 H25          0.4480     1.4460     7.1130 h4         1 AM5       0.043600
     56 HN6          0.8650     0.4100     4.8510 hn         1 AM5       0.329500
     57 HN7         -3.5630    -0.9150     9.6720 hn         1 AM5       0.466800
     58 H27         -2.3360     0.5820    14.0300 ha         1 AM5       0.138000
     59 H29         -1.3810     3.7140    11.2710 ha         1 AM5       0.138000
     60 H30         -1.9630     2.2360     9.3900 ha         1 AM5       0.144000
     61 H31         -2.9190    -0.8970    12.1460 ha         1 AM5       0.144000
     62 H1          -1.3650     3.5850    16.4810 h1         1 AM5       0.042450
     63 H1A         -3.0250     4.1850    16.6440 h1         1 AM5       0.042450
     64 H3          -0.3450     6.2440    14.1960 h1         1 AM5       0.042450
     65 H3A          0.2030     4.7900    15.0490 h1         1 AM5       0.042450
     66 H4          -0.2230     4.2820    12.6780 h1         1 AM5       0.049200
     67 H4A         -1.8830     4.8820    12.8400 h1         1 AM5       0.049200
     68 H6          -3.4530     3.6770    14.2730 h1         1 AM5       0.049200
     69 H6A         -2.9050     2.2230    15.1250 h1         1 AM5       0.049200
     70 H2          -2.2660     6.3700    17.2640 h1         1 AM5       0.032700
     71 H2A         -1.1300     7.2430    16.2270 h1         1 AM5       0.032700
     72 H2B         -0.5810     5.8420    17.1580 h1         1 AM5       0.032700
     73 C2          -1.4110     6.2680    16.6070 c3         1 AM5       0.153100
@<TRIPOS>BOND
     1     1     2 ar
     2     1    18 ar
     3     2     3 ar
     4     3     4 1
     5     3    16 ar
     6     4     5 1
     7     4    42 2
     8     5     6 1
     9     6     7 ar
    10     6    11 ar
    11     7     8 ar
    12     8     9 ar
    13     9    10 ar
    14    10    11 ar
    15    10    12 1
    16    12    13 1
    17    12    14 1
    18    12    15 1
    19    16    17 ar
    20    17    18 ar
    21    17    27 1
    22    18    19 1
    23    20    21 ar
    24    20    25 ar
    25    21    22 ar
    26    22    23 ar
    27    22    26 1
    28    23    24 ar
    29    24    25 ar
    30    25    29 1
    31    26    27 1
    32    27    28 2
    33    29    34 1
    34    30    31 ar
    35    30    35 ar
    36    31    32 ar
    37    31    40 1
    38    32    33 ar
    39    33    34 ar
    40    34    35 ar
    41    36    37 1
    42    36    41 1
    43    37    38 1
    44    37    73 1
    45    38    39 1
    46    39    40 1
    47    40    41 1
    48     1    43 1
    49     2    44 1
    50     5    45 1
    51     7    46 1
    52     8    47 1
    53     9    48 1
    54    11    49 1
    55    16    50 1
    56    19    51 1
    57    19    52 1
    58    19    53 1
    59    21    54 1
    60    23    55 1
    61    26    56 1
    62    29    57 1
    63    30    58 1
    64    32    59 1
    65    33    60 1
    66    35    61 1
    67    36    62 1
    68    36    63 1
    69    38    64 1
    70    38    65 1
    71    39    66 1
    72    39    67 1
    73    41    68 1
    74    41    69 1
    75    73    70 1
    76    73    71 1
    77    73    72 1
@<TRIPOS>SUBSTRUCTURE
     1 AM5         1 TEMP              0 ****  ****    0 ROOT
