@<TRIPOS>MOLECULE
AM6
   76    80     1     0     0
SMALL
bcc


@<TRIPOS>ATOM
      1 C9           0.0000     0.0000     0.0000 ca         1 AM6      -0.102000
      2 C10          1.3820     0.0000     0.0000 ca         1 AM6      -0.096000
      3 C11          2.0820     0.0000     1.2000 ca         1 AM6      -0.113400
      4 N3           3.4810     0.0000     1.1950 ns         1 AM6      -0.031100
      5 C7           4.1580     0.6740     2.1460 c          1 AM6       0.595700
      6 C14          5.6330     0.7590     2.0830 ca         1 AM6      -0.180600
      7 C15          6.3200     0.2210     0.9930 ca         1 AM6      -0.042000
      8 C19          7.6960     0.3030     0.9410 ca         1 AM6      -0.125000
      9 C18          8.3950     0.9170     1.9640 ca         1 AM6      -0.012000
     10 C17          7.7200     1.4520     3.0470 ca         1 AM6      -0.228300
     11 C16          6.3440     1.3820     3.1100 ca         1 AM6       0.057700
     12 C20          8.4900     2.1180     4.1580 c3         1 AM6       0.649200
     13 F1           9.8580     2.0720     3.8710 f          1 AM6      -0.205967
     14 F3           8.0820     3.4520     4.2730 f          1 AM6      -0.205967
     15 F2           8.2440     1.4500     5.3630 f          1 AM6      -0.205967
     16 C12          1.3940     0.0010     2.4040 ca         1 AM6      -0.080000
     17 C13         -0.0010     0.0020     2.4040 ca         1 AM6      -0.152600
     18 C21         -0.6940     0.0010     1.1920 ca         1 AM6      -0.016300
     19 C22         -2.2010     0.0020     1.1870 c3         1 AM6       0.048200
     20 N1          -2.4720    -0.9220     7.3590 nb         1 AM6      -0.670000
     21 C23         -1.8460    -0.8480     6.1960 ca         1 AM6       0.472700
     22 C24         -0.7650     0.0200     6.0640 ca         1 AM6      -0.395000
     23 C25         -0.3850     0.7780     7.1670 ca         1 AM6       0.472700
     24 N4          -1.0580     0.6500     8.2990 nb         1 AM6      -0.670000
     25 C26         -2.0810    -0.1850     8.3880 ca         1 AM6       0.687900
     26 N6          -0.0770     0.1270     4.8480 ns         1 AM6      -0.016100
     27 C8          -0.7430     0.0010     3.6830 c          1 AM6       0.587700
     28 O2          -1.9530    -0.1120     3.6840 o          1 AM6      -0.645100
     29 N7          -2.7640    -0.2920     9.5920 nu         1 AM6      -0.285300
     30 O1           3.5570     1.2120     3.0550 o          1 AM6      -0.649100
     31 C27          5.6100     1.9710     4.2870 c3         1 AM6       0.018200
     32 C28         -2.2000     0.9380    13.0110 ca         1 AM6      -0.128000
     33 C29         -1.8100     2.2480    12.7590 ca         1 AM6       0.003600
     34 C30         -1.7370     2.7110    11.4520 ca         1 AM6      -0.128000
     35 C31         -2.0520     1.8690    10.4030 ca         1 AM6      -0.093500
     36 C5          -2.4430     0.5610    10.6550 ca         1 AM6      -0.024400
     37 C32         -2.5160     0.0980    11.9620 ca         1 AM6      -0.093500
     38 C1          -0.1650     3.4460    15.8520 c3         1 AM6       0.155800
     39 N2           0.2200     4.7770    15.3620 n3         1 AM6      -0.542600
     40 C3          -0.8410     5.3540    14.5250 c3         1 AM6       0.155800
     41 C4          -1.1050     4.4320    13.3320 c3         1 AM6       0.090800
     42 N5          -1.4910     3.1000    13.8220 nh         1 AM6      -0.354000
     43 C6          -0.4290     2.5230    14.6590 c3         1 AM6       0.090800
     44 H9          -0.5400    -0.0000    -0.9390 ha         1 AM6       0.114000
     45 H10          1.9220    -0.0010    -0.9390 ha         1 AM6       0.104000
     46 HN3          3.9780    -0.5270     0.5050 hn         1 AM6       0.173500
     47 H15          5.7740    -0.2600     0.1910 ha         1 AM6       0.102000
     48 H19          8.2310    -0.1130     0.0960 ha         1 AM6       0.115000
     49 H18          9.4760     0.9770     1.9190 ha         1 AM6       0.122000
     50 H12          1.9380     0.0010     3.3410 ha         1 AM6       0.143000
     51 H22         -2.5650    -0.9060     1.6530 hc         1 AM6       0.023367
     52 H22A        -2.5590     0.0510     0.1660 hc         1 AM6       0.023367
     53 H22B        -2.5640     0.8610     1.7390 hc         1 AM6       0.023367
     54 H23         -2.1700    -1.4530     5.3580 h4         1 AM6       0.000100
     55 H25          0.4510     1.4640     7.1000 h4         1 AM6       0.000100
     56 HN6          0.8840     0.4070     4.8430 hn         1 AM6       0.181500
     57 HN7         -3.5070    -0.9540     9.6880 hn         1 AM6       0.293800
     58 H27          6.3240     2.3820     4.9900 hc         1 AM6       0.035033
     59 H27A         5.0290     1.1970     4.7740 hc         1 AM6       0.035033
     60 H27B         4.9480     2.7570     3.9430 hc         1 AM6       0.035033
     61 H28         -2.2570     0.5770    14.0310 ha         1 AM6       0.117500
     62 H30         -1.4330     3.7320    11.2550 ha         1 AM6       0.117500
     63 H31         -1.9960     2.2310     9.3830 ha         1 AM6       0.119000
     64 H32         -2.8200    -0.9230    12.1590 ha         1 AM6       0.119000
     65 H1          -1.0650     3.5280    16.4490 h1         1 AM6       0.029700
     66 H1A          0.6380     3.0370    16.4530 h1         1 AM6       0.029700
     67 H3          -1.7470     5.4540    15.1100 h1         1 AM6       0.029700
     68 H3A         -0.5280     6.3270    14.1650 h1         1 AM6       0.029700
     69 H4          -1.9090     4.8410    12.7310 h1         1 AM6       0.027200
     70 H4A         -0.2060     4.3490    12.7340 h1         1 AM6       0.027200
     71 H6          -0.7430     1.5510    15.0190 h1         1 AM6       0.027200
     72 H6A          0.4770     2.4230    14.0740 h1         1 AM6       0.027200
     73 H2           1.7220     5.7010    14.2300 h1         1 AM6       0.005033
     74 H2A          2.2830     4.4160    15.3080 h1         1 AM6       0.005033
     75 H2B          1.4150     4.0080    13.8220 h1         1 AM6       0.005033
     76 C2           1.4930     4.7220    14.6330 c3         1 AM6       0.167100
@<TRIPOS>BOND
     1     1     2 ar  
     2     1    18 ar  
     3     1    44 1   
     4     2     3 ar  
     5     2    45 1   
     6     3     4 1   
     7     3    16 ar  
     8     4     5 1   
     9     4    46 1   
    10     5     6 1   
    11     5    30 2   
    12     6     7 ar  
    13     6    11 ar  
    14     7     8 ar  
    15     7    47 1   
    16     8     9 ar  
    17     8    48 1   
    18     9    10 ar  
    19     9    49 1   
    20    10    11 ar  
    21    10    12 1   
    22    11    31 1   
    23    12    13 1   
    24    12    14 1   
    25    12    15 1   
    26    16    17 ar  
    27    16    50 1   
    28    17    18 ar  
    29    17    27 1   
    30    18    19 1   
    31    19    51 1   
    32    19    52 1   
    33    19    53 1   
    34    20    21 ar  
    35    20    25 ar  
    36    21    22 ar  
    37    21    54 1   
    38    22    23 ar  
    39    22    26 1   
    40    23    24 ar  
    41    23    55 1   
    42    24    25 ar  
    43    25    29 1   
    44    26    27 1   
    45    26    56 1   
    46    27    28 2   
    47    29    36 1   
    48    29    57 1   
    49    31    58 1   
    50    31    59 1   
    51    31    60 1   
    52    32    33 ar  
    53    32    37 ar  
    54    32    61 1   
    55    33    34 ar  
    56    33    42 1   
    57    34    35 ar  
    58    34    62 1   
    59    35    36 ar  
    60    35    63 1   
    61    36    37 ar  
    62    37    64 1   
    63    38    39 1   
    64    38    43 1   
    65    38    65 1   
    66    38    66 1   
    67    39    40 1   
    68    39    76 1   
    69    40    41 1   
    70    40    67 1   
    71    40    68 1   
    72    41    42 1   
    73    41    69 1   
    74    41    70 1   
    75    42    43 1   
    76    43    71 1   
    77    43    72 1   
    78    73    76 1   
    79    74    76 1   
    80    75    76 1   
@<TRIPOS>SUBSTRUCTURE
     1 AM6         1 TEMP              0 ****  ****    0 ROOT
