@<TRIPOS>MOLECULE
molecule
   76    80     1     0     0
SMALL
bcc


@<TRIPOS>ATOM
      1 C9           0.0000     0.0000     0.0000 ca         1 AM6      -0.125000
      2 C10          1.3820     0.0000     0.0000 ca         1 AM6      -0.127000
      3 C11          2.0820     0.0000     1.2000 ca         1 AM6       0.034600
      4 N3           3.4810     0.0000     1.1950 ns         1 AM6      -0.473100
      5 C7           4.1580     0.6740     2.1460 c          1 AM6       0.683700
      6 C14          5.6330     0.7590     2.0830 ca         1 AM6      -0.164600
      7 C15          6.3200     0.2210     0.9930 ca         1 AM6      -0.071000
      8 C19          7.6960     0.3030     0.9410 ca         1 AM6      -0.150000
      9 C18          8.3950     0.9170     1.9640 ca         1 AM6      -0.051000
     10 C17          7.7200     1.4520     3.0470 ca         1 AM6      -0.195300
     11 C16          6.3440     1.3820     3.1100 ca         1 AM6       0.036700
     12 C20          8.4900     2.1180     4.1580 c3         1 AM6       0.678200
     13 F1           9.8580     2.0720     3.8710 f          1 AM6      -0.220633
     14 F3           8.0820     3.4520     4.2730 f          1 AM6      -0.220633
     15 F2           8.2440     1.4500     5.3630 f          1 AM6      -0.220633
     16 C12          1.3940     0.0010     2.4040 ca         1 AM6      -0.098000
     17 C13         -0.0010     0.0020     2.4040 ca         1 AM6      -0.143600
     18 C21         -0.6940     0.0010     1.1920 ca         1 AM6      -0.025300
     19 C22         -2.2010     0.0020     1.1870 c3         1 AM6      -0.044800
     20 N1          -2.4720    -0.9220     7.3590 nb         1 AM6      -0.772000
     21 C23         -1.8460    -0.8480     6.1960 ca         1 AM6       0.481700
     22 C24         -0.7650     0.0200     6.0640 ca         1 AM6      -0.249000
     23 C25         -0.3850     0.7780     7.1670 ca         1 AM6       0.481700
     24 N4          -1.0580     0.6500     8.2990 nb         1 AM6      -0.772000
     25 C26         -2.0810    -0.1850     8.3880 ca         1 AM6       0.917900
     26 N6          -0.0770     0.1270     4.8480 ns         1 AM6      -0.463100
     27 C8          -0.7430     0.0010     3.6830 c          1 AM6       0.678700
     28 O2          -1.9530    -0.1120     3.6840 o          1 AM6      -0.603100
     29 N7          -2.7640    -0.2920     9.5920 nu         1 AM6      -0.754300
     30 O1           3.5570     1.2120     3.0550 o          1 AM6      -0.605100
     31 C27          5.6100     1.9710     4.2870 c3         1 AM6      -0.060800
     32 C28         -2.2000     0.9380    13.0110 ca         1 AM6      -0.149500
     33 C29         -1.8100     2.2480    12.7590 ca         1 AM6       0.082600
     34 C30         -1.7370     2.7110    11.4520 ca         1 AM6      -0.149500
     35 C31         -2.0520     1.8690    10.4030 ca         1 AM6      -0.122000
     36 C5          -2.4430     0.5610    10.6550 ca         1 AM6       0.136600
     37 C32         -2.5160     0.0980    11.9620 ca         1 AM6      -0.122000
     38 C1          -0.1650     3.4460    15.8520 c3         1 AM6       0.160800
     39 N2           0.2200     4.7770    15.3620 n3         1 AM6      -0.721600
     40 C3          -0.8410     5.3540    14.5250 c3         1 AM6       0.160800
     41 C4          -1.1050     4.4320    13.3320 c3         1 AM6       0.120300
     42 N5          -1.4910     3.1000    13.8220 nh         1 AM6      -0.590000
     43 C6          -0.4290     2.5230    14.6590 c3         1 AM6       0.120300
     44 H9          -0.5400    -0.0000    -0.9390 ha         1 AM6       0.142000
     45 H10          1.9220    -0.0010    -0.9390 ha         1 AM6       0.133000
     46 HN3          3.9780    -0.5270     0.5050 hn         1 AM6       0.327500
     47 H15          5.7740    -0.2600     0.1910 ha         1 AM6       0.130000
     48 H19          8.2310    -0.1130     0.0960 ha         1 AM6       0.144000
     49 H18          9.4760     0.9770     1.9190 ha         1 AM6       0.155000
     50 H12          1.9380     0.0010     3.3410 ha         1 AM6       0.160000
     51 H22         -2.5650    -0.9060     1.6530 hc         1 AM6       0.055700
     52 H22A        -2.5590     0.0510     0.1660 hc         1 AM6       0.055700
     53 H22B        -2.5640     0.8610     1.7390 hc         1 AM6       0.055700
     54 H23         -2.1700    -1.4530     5.3580 h4         1 AM6       0.044100
     55 H25          0.4510     1.4640     7.1000 h4         1 AM6       0.044100
     56 HN6          0.8840     0.4070     4.8430 hn         1 AM6       0.334500
     57 HN7         -3.5070    -0.9540     9.6880 hn         1 AM6       0.466800
     58 H27          6.3240     2.3820     4.9900 hc         1 AM6       0.066033
     59 H27A         5.0290     1.1970     4.7740 hc         1 AM6       0.066033
     60 H27B         4.9480     2.7570     3.9430 hc         1 AM6       0.066033
     61 H28         -2.2570     0.5770    14.0310 ha         1 AM6       0.138000
     62 H30         -1.4330     3.7320    11.2550 ha         1 AM6       0.138000
     63 H31         -1.9960     2.2310     9.3830 ha         1 AM6       0.144000
     64 H32         -2.8200    -0.9230    12.1590 ha         1 AM6       0.144000
     65 H1          -1.0650     3.5280    16.4490 h1         1 AM6       0.063200
     66 H1A          0.6380     3.0370    16.4530 h1         1 AM6       0.063200
     67 H3          -1.7470     5.4540    15.1100 h1         1 AM6       0.063200
     68 H3A         -0.5280     6.3270    14.1650 h1         1 AM6       0.063200
     69 H4          -1.9090     4.8410    12.7310 h1         1 AM6       0.046950
     70 H4A         -0.2060     4.3490    12.7340 h1         1 AM6       0.046950
     71 H6          -0.7430     1.5510    15.0190 h1         1 AM6       0.046950
     72 H6A          0.4770     2.4230    14.0740 h1         1 AM6       0.046950
     73 H2           1.7220     5.7010    14.2300 h1         1 AM6       0.034033
     74 H2A          2.2830     4.4160    15.3080 h1         1 AM6       0.034033
     75 H2B          1.4150     4.0080    13.8220 h1         1 AM6       0.034033
     76 C2           1.4930     4.7220    14.6330 c3         1 AM6       0.141100
@<TRIPOS>BOND
     1     1     2 ar
     2     1    18 ar
     3     2     3 ar
     4     3     4 1
     5     3    16 ar
     6     4     5 1
     7     5     6 1
     8     5    30 2
     9     6     7 ar
    10     6    11 ar
    11     7     8 ar
    12     8     9 ar
    13     9    10 ar
    14    10    11 ar
    15    10    12 1
    16    11    31 1
    17    12    13 1
    18    12    14 1
    19    12    15 1
    20    16    17 ar
    21    17    18 ar
    22    17    27 1
    23    18    19 1
    24    20    21 ar
    25    20    25 ar
    26    21    22 ar
    27    22    23 ar
    28    22    26 1
    29    23    24 ar
    30    24    25 ar
    31    25    29 1
    32    26    27 1
    33    27    28 2
    34    29    36 1
    35    32    33 ar
    36    32    37 ar
    37    33    34 ar
    38    33    42 1
    39    34    35 ar
    40    35    36 ar
    41    36    37 ar
    42    38    39 1
    43    38    43 1
    44    39    40 1
    45    39    76 1
    46    40    41 1
    47    41    42 1
    48    42    43 1
    49     1    44 1
    50     2    45 1
    51     4    46 1
    52     7    47 1
    53     8    48 1
    54     9    49 1
    55    16    50 1
    56    19    51 1
    57    19    52 1
    58    19    53 1
    59    21    54 1
    60    23    55 1
    61    26    56 1
    62    29    57 1
    63    31    58 1
    64    31    59 1
    65    31    60 1
    66    32    61 1
    67    34    62 1
    68    35    63 1
    69    37    64 1
    70    38    65 1
    71    38    66 1
    72    40    67 1
    73    40    68 1
    74    41    69 1
    75    41    70 1
    76    43    71 1
    77    43    72 1
    78    76    73 1
    79    76    74 1
    80    76    75 1
@<TRIPOS>SUBSTRUCTURE
     1 AM6         1 TEMP              0 ****  ****    0 ROOT
