@<TRIPOS>MOLECULE
molecule
   80    85     1     0     0
SMALL
bcc


@<TRIPOS>ATOM
      1 N1           0.0000     0.0000     0.0000 n3         1 AM7      -0.726600
      2 N3         -11.8770    -2.9100   -14.1020 nc         1 AM7      -0.653300
      3 C4           1.4700     0.0000     0.0000 c3         1 AM7       0.122300
      4 C5         -13.1780    -3.4760   -16.3500 ca         1 AM7      -0.071300
      5 C6         -14.4550    -3.0240   -16.0770 ca         1 AM7      -0.109000
      6 C7         -15.4940    -3.9260   -15.9510 ca         1 AM7      -0.124500
      7 C8         -15.2570    -5.2790   -16.0990 ca         1 AM7      -0.121000
      8 C10        -12.9410    -4.8290   -16.5040 ca         1 AM7      -0.109000
      9 C13        -11.4050    -2.2720   -15.1380 cd         1 AM7       0.505900
     10 C15         -8.5430    -1.3380    -8.8660 ca         1 AM7       0.056100
     11 C17         -9.0340    -2.7650   -10.7320 ca         1 AM7      -0.152000
     12 C20         -9.1850    -0.2810    -9.4970 ca         1 AM7      -0.109000
     13 C21         -5.9920    -0.8510    -6.3230 ca         1 AM7      -0.161300
     14 C22         -6.6920    -0.9930    -5.1160 ca         1 AM7      -0.175000
     15 C24         -4.6380    -0.6790    -3.9070 ca         1 AM7       0.156100
     16 C26         -4.5940    -0.6210    -6.3020 ca         1 AM7       0.456600
     17 C28         -5.8940    -0.7850    -8.7170 ca         1 AM7      -0.349300
     18 C1          -0.5210     1.1730     0.7160 c3         1 AM7       0.122300
     19 C2           0.0030     1.1600     2.1550 c3         1 AM7       0.139400
     20 O1           1.4330     1.1290     2.1360 os         1 AM7      -0.425600
     21 C3           1.9750     0.0000     1.4460 c3         1 AM7       0.139400
     22 C33         -0.5260    -0.0570    -1.3710 c3         1 AM7       0.164800
     23 C32         -2.0350    -0.3070    -1.3280 c3         1 AM7      -0.083400
     24 C31         -2.5820    -0.3660    -2.7550 c3         1 AM7       0.133400
     25 O3          -3.9920    -0.5990    -2.7150 os         1 AM7      -0.311900
     26 C25         -3.9320    -0.5370    -5.0670 ca         1 AM7      -0.265300
     27 C23         -6.0220    -0.9090    -3.9310 ca         1 AM7       0.120100
     28 O2          -6.7010    -1.0450    -2.7620 os         1 AM7      -0.313900
     29 C35         -8.1080    -1.2750    -2.8520 c3         1 AM7       0.125700
     30 N4          -3.9230    -0.4860    -7.4520 nb         1 AM7      -0.712000
     31 C27         -4.5270    -0.5610    -8.6150 ca         1 AM7       0.464200
     32 C29         -6.6520    -0.9390    -7.5690 ca         1 AM7       0.180100
     33 O4          -7.9880    -1.1590    -7.6380 os         1 AM7      -0.234200
     34 C16         -8.4720    -2.5800    -9.4850 ca         1 AM7       0.123900
     35 F1          -7.8500    -3.6080    -8.8650 f          1 AM7      -0.126900
     36 C19         -9.7490    -0.4600   -10.7420 ca         1 AM7      -0.105000
     37 C18         -9.6760    -1.7040   -11.3690 ca         1 AM7       0.010200
     38 C11        -10.2810    -1.8970   -12.7080 cd         1 AM7      -0.242400
     39 C12         -9.7760    -1.2070   -13.8440 c          1 AM7       0.693700
     40 O5          -8.8340    -0.4410   -13.7390 o          1 AM7      -0.636500
     41 N2         -10.3650    -1.4210   -15.0400 n          1 AM7      -0.349300
     42 C34         -9.8710    -0.7280   -16.2320 c3         1 AM7       0.065300
     43 C14        -11.3520    -2.7540   -12.8850 cc         1 AM7       0.174600
     44 C9         -13.9800    -5.7310   -16.3720 ca         1 AM7      -0.124500
     45 H41          1.8310    -0.8860    -0.5080 h1         1 AM7       0.043700
     46 H42          1.8310     0.8860    -0.5080 h1         1 AM7       0.043700
     47 H6         -14.6400    -1.9630   -15.9590 ha         1 AM7       0.127500
     48 H7         -16.4960    -3.5720   -15.7370 ha         1 AM7       0.131000
     49 H8         -16.0710    -5.9860   -15.9980 ha         1 AM7       0.131000
     50 H10        -11.9400    -5.1820   -16.7180 ha         1 AM7       0.127500
     51 H17         -8.9770    -3.7330   -11.2150 ha         1 AM7       0.154000
     52 H20         -9.2420     0.6860    -9.0110 ha         1 AM7       0.153000
     53 H22         -7.7610    -1.1700    -5.1250 ha         1 AM7       0.157000
     54 H28         -6.3650    -0.8420    -9.6910 ha         1 AM7       0.151000
     55 H11         -0.1890     2.0760     0.2190 h1         1 AM7       0.043700
     56 H12         -1.6040     1.1370     0.7260 h1         1 AM7       0.043700
     57 H21         -0.3310     2.0540     2.6680 h1         1 AM7       0.053700
     58 H22A        -0.3690     0.2810     2.6670 h1         1 AM7       0.053700
     59 H31          3.0570     0.0610     1.4500 h1         1 AM7       0.053700
     60 H32          1.6570    -0.9110     1.9380 h1         1 AM7       0.053700
     61 H331        -0.0420    -0.8630    -1.9100 h1         1 AM7       0.036200
     62 H332        -0.3290     0.8820    -1.8730 h1         1 AM7       0.036200
     63 H321        -2.2320    -1.2460    -0.8260 hc         1 AM7       0.064200
     64 H322        -2.5190     0.4990    -0.7890 hc         1 AM7       0.064200
     65 H311        -2.3850     0.5730    -3.2560 h1         1 AM7       0.038700
     66 H312        -2.0980    -1.1720    -3.2930 h1         1 AM7       0.038700
     67 H25         -2.8800    -0.2790    -5.0330 ha         1 AM7       0.160000
     68 H351        -8.5240    -1.3640    -1.8550 h1         1 AM7       0.042700
     69 H352        -8.2910    -2.1900    -3.4020 h1         1 AM7       0.042700
     70 H353        -8.5780    -0.4450    -3.3650 h1         1 AM7       0.042700
     71 H27         -3.9440    -0.4420    -9.5200 h4         1 AM7       0.023100
     72 H19        -10.2490     0.3660   -11.2350 ha         1 AM7       0.149000
     73 H341        -9.0170    -0.1160   -15.9660 h1         1 AM7       0.064033
     74 H342       -10.6550    -0.0980   -16.6340 h1         1 AM7       0.064033
     75 H343        -9.5750    -1.4570   -16.9770 h1         1 AM7       0.064033
     76 H14        -11.7620    -3.2960   -12.0410 h4         1 AM7       0.176000
     77 H301       -12.4240    -1.5510   -16.8630 hc         1 AM7       0.072200
     78 H302       -11.3050    -2.8860   -17.1750 hc         1 AM7       0.072200
     79 H9         -13.7940    -6.7920   -16.4900 ha         1 AM7       0.131000
     80 C30        -12.0430    -2.4930   -16.4860 c3         1 AM7      -0.068400
@<TRIPOS>BOND
     1    44     7 ar
     2    44     8 ar
     3     7     6 ar
     4     8     4 ar
     5     6     5 ar
     6     4     5 ar
     7     4    80 1
     8    42    41 1
     9    80     9 1
    10    41     9 1
    11    41    39 1
    12     9     2 2
    13    40    39 2
    14     2    43 1
    15    39    38 1
    16    43    38 2
    17    38    37 1
    18    37    11 ar
    19    37    36 ar
    20    11    34 ar
    21    36    12 ar
    22    34    35 1
    23    34    10 ar
    24    12    10 ar
    25    10    33 1
    26    33    32 1
    27    17    32 ar
    28    17    31 ar
    29    32    13 ar
    30    31    30 ar
    31    13    14 ar
    32    13    16 ar
    33    14    27 ar
    34    29    28 1
    35    30    16 ar
    36    16    26 ar
    37    27    28 1
    38    27    15 ar
    39    26    15 ar
    40    15    25 1
    41    25    24 1
    42    24    23 1
    43    23    22 1
    44    22     1 1
    45    18     1 1
    46    18    19 1
    47     1     3 1
    48    19    20 1
    49     3    21 1
    50    20    21 1
    51     3    45 1
    52     3    46 1
    53     5    47 1
    54     6    48 1
    55     7    49 1
    56     8    50 1
    57    11    51 1
    58    12    52 1
    59    14    53 1
    60    17    54 1
    61    18    55 1
    62    18    56 1
    63    19    57 1
    64    19    58 1
    65    21    59 1
    66    21    60 1
    67    22    61 1
    68    22    62 1
    69    23    63 1
    70    23    64 1
    71    24    65 1
    72    24    66 1
    73    26    67 1
    74    29    68 1
    75    29    69 1
    76    29    70 1
    77    31    71 1
    78    36    72 1
    79    42    73 1
    80    42    74 1
    81    42    75 1
    82    43    76 1
    83    80    77 1
    84    80    78 1
    85    44    79 1
@<TRIPOS>SUBSTRUCTURE
     1 AM7         1 TEMP              0 ****  ****    0 ROOT
