@<TRIPOS>MOLECULE
AM8
   53    56     1     0     0
SMALL
bcc


@<TRIPOS>ATOM
      1 CAA          0.0000     0.0000     0.0000 c3         1 AM8       0.104200
      2 CAC          1.5060     0.0000     0.0000 cc         1 AM8      -0.159300
      3 CAD          2.3410     0.0000     1.1360 cc         1 AM8      -0.123300
      4 CAE          1.8890    -0.0000     2.5740 c3         1 AM8       0.088200
      5 CAF          2.3050    -0.0060    -1.0870 cd         1 AM8      -0.314600
      6 CAG          1.8440    -0.0110    -2.5220 c3         1 AM8       0.113200
      7 NAH          3.6010    -0.0050    -0.6640 na         1 AM8       0.411900
      8 CAI          3.6170    -0.0010     0.7000 cd         1 AM8      -0.356600
      9 CAJ          4.8470     0.0020     1.5700 c3         1 AM8       0.144100
     10 CAK          5.1870    -1.4130     1.9640 cc         1 AM8      -0.056400
     11 CAL          6.0740    -2.2570     1.3440 ca         1 AM8      -0.213000
     12 CAM          6.9560    -2.1480     0.1810 ca         1 AM8       0.136000
     13 CAN          4.6270    -2.1910     3.1220 c          1 AM8       0.694700
     14 OAO          3.8060    -1.7850     3.9210 o          1 AM8      -0.464100
     15 NAP          5.1840    -3.4000     3.1230 nc         1 AM8      -0.331400
     16 CAQ          6.0540    -3.5260     2.1050 ca         1 AM8       0.117000
     17 CAR          6.8760    -4.5640     1.6760 ca         1 AM8      -0.130000
     18 CAS          7.6850    -4.4020     0.5680 ca         1 AM8       0.031000
     19 CAT          7.7260    -3.2160    -0.1620 ca         1 AM8      -0.192500
     20 SAU          8.7880    -3.1000    -1.5630 sy         1 AM8       1.058200
     21 OAV          8.7150    -4.3540    -2.2270 o          1 AM8      -0.582300
     22 OAW          8.4830    -1.8660    -2.1970 o          1 AM8      -0.582300
     23 NAX         10.3380    -2.9630    -0.9930 nh         1 AM8      -0.337900
     24 CBE         11.2960    -4.0500    -1.2070 c3         1 AM8       0.243100
     25 CAY         10.7310    -1.8100    -0.3100 ca         1 AM8       0.092600
     26 CAZ         10.0800    -0.6050    -0.5460 ca         1 AM8      -0.214000
     27 CBA         10.4720     0.5330     0.1320 ca         1 AM8       0.004400
     28 ClBM         9.6600     2.0400    -0.1610 cl         1 AM8      -0.027400
     29 CBB         11.5090     0.4740     1.0470 ca         1 AM8      -0.128000
     30 CBC         12.1580    -0.7250     1.2830 ca         1 AM8      -0.058000
     31 CBD         11.7680    -1.8670     0.6120 ca         1 AM8      -0.150000
     32 HAA1        -0.3610     1.0190     0.0650 hc         1 AM8       0.002033
     33 HAA2        -0.3610    -0.5660     0.8500 hc         1 AM8       0.002033
     34 HAA3        -0.3610    -0.4530    -0.9150 hc         1 AM8       0.002033
     35 HAE1         1.0160     0.6320     2.6780 hc         1 AM8       0.010367
     36 HAE2         2.6860     0.3780     3.2030 hc         1 AM8       0.010367
     37 HAE3         1.6410    -1.0110     2.8740 hc         1 AM8       0.010367
     38 HAG1         1.3120    -0.9320    -2.7270 hc         1 AM8       0.005700
     39 HAG2         1.1850     0.8320    -2.6930 hc         1 AM8       0.005700
     40 HAG3         2.7030     0.0630    -3.1770 hc         1 AM8       0.005700
     41 HNAH         4.4080    -0.0070    -1.2560 hn         1 AM8       0.107700
     42 HAJ1         5.6760     0.4320     1.0210 hc         1 AM8       0.033200
     43 HAJ2         4.6590     0.5900     2.4600 hc         1 AM8       0.033200
     44 HAM          6.9970    -1.2310    -0.3950 ha         1 AM8       0.126000
     45 HAR          6.8780    -5.5060     2.2120 ha         1 AM8       0.129000
     46 HAS          8.3160    -5.2270     0.2590 ha         1 AM8       0.116000
     47 HBE1        12.2550    -3.6350    -1.4930 h1         1 AM8       0.017033
     48 HBE2        11.4070    -4.6190    -0.2920 h1         1 AM8       0.017033
     49 HBE3        10.9350    -4.7000    -1.9950 h1         1 AM8       0.017033
     50 HAZ          9.3190    -0.5430    -1.3140 ha         1 AM8       0.196000
     51 HBB         11.8160     1.3680     1.5760 ha         1 AM8       0.117000
     52 HBC         12.9680    -0.7690     2.0000 ha         1 AM8       0.106000
     53 HBD         12.2770    -2.8050     0.7980 ha         1 AM8       0.116000
@<TRIPOS>BOND
     1     1     2 1   
     2     1    32 1   
     3     1    33 1   
     4     1    34 1   
     5     2     3 1   
     6     2     5 2   
     7     3     4 1   
     8     3     8 2   
     9     4    35 1   
    10     4    36 1   
    11     4    37 1   
    12     5     6 1   
    13     5     7 1   
    14     6    38 1   
    15     6    39 1   
    16     6    40 1   
    17     7     8 1   
    18     7    41 1   
    19     8     9 1   
    20     9    10 1   
    21     9    42 1   
    22     9    43 1   
    23    10    11 2   
    24    10    13 1   
    25    11    12 ar  
    26    11    16 ar  
    27    12    19 ar  
    28    12    44 1   
    29    13    14 2   
    30    13    15 1   
    31    15    16 2   
    32    16    17 ar  
    33    17    18 ar  
    34    17    45 1   
    35    18    19 ar  
    36    18    46 1   
    37    19    20 1   
    38    20    21 2   
    39    20    22 2   
    40    20    23 1   
    41    23    24 1   
    42    23    25 1   
    43    24    47 1   
    44    24    48 1   
    45    24    49 1   
    46    25    26 ar  
    47    25    31 ar  
    48    26    27 ar  
    49    26    50 1   
    50    27    28 1   
    51    27    29 ar  
    52    29    30 ar  
    53    29    51 1   
    54    30    31 ar  
    55    30    52 1   
    56    31    53 1   
@<TRIPOS>SUBSTRUCTURE
     1 AM8         1 TEMP              0 ****  ****    0 ROOT
