@<TRIPOS>MOLECULE
molecule
   53    56     1     0     0
SMALL
bcc


@<TRIPOS>ATOM
      1 CAA          0.0000     0.0000     0.0000 c3         1 AM8      -0.011800
      2 CAC          1.5060     0.0000     0.0000 cc         1 AM8      -0.158300
      3 CAD          2.3410     0.0000     1.1360 cd         1 AM8      -0.119300
      4 CAE          1.8890    -0.0000     2.5740 c3         1 AM8      -0.018800
      5 CAF          2.3050    -0.0060    -1.0870 cd         1 AM8      -0.100600
      6 CAG          1.8440    -0.0110    -2.5220 c3         1 AM8      -0.018800
      7 NAH          3.6010    -0.0050    -0.6640 na         1 AM8      -0.157100
      8 CAI          3.6170    -0.0010     0.7000 cc         1 AM8      -0.144600
      9 CAJ          4.8470     0.0020     1.5700 c3         1 AM8       0.043100
     10 CAK          5.1870    -1.4130     1.9640 cc         1 AM8      -0.049400
     11 CAL          6.0740    -2.2570     1.3440 ca         1 AM8      -0.214000
     12 CAM          6.9560    -2.1480     0.1810 ca         1 AM8       0.104000
     13 CAN          4.6270    -2.1910     3.1220 c          1 AM8       0.687700
     14 OAO          3.8060    -1.7850     3.9210 o          1 AM8      -0.444100
     15 NAP          5.1840    -3.4000     3.1230 nc         1 AM8      -0.399400
     16 CAQ          6.0540    -3.5260     2.1050 ca         1 AM8       0.159000
     17 CAR          6.8760    -4.5640     1.6760 ca         1 AM8      -0.158000
     18 CAS          7.6850    -4.4020     0.5680 ca         1 AM8       0.008000
     19 CAT          7.7260    -3.2160    -0.1620 ca         1 AM8      -0.349500
     20 SAU          8.7880    -3.1000    -1.5630 sy         1 AM8       1.429200
     21 OAV          8.7150    -4.3540    -2.2270 o          1 AM8      -0.626800
     22 OAW          8.4830    -1.8660    -2.1970 o          1 AM8      -0.626800
     23 NAX         10.3380    -2.9630    -0.9930 nh         1 AM8      -0.668900
     24 CBE         11.2960    -4.0500    -1.2070 c3         1 AM8       0.215100
     25 CAY         10.7310    -1.8100    -0.3100 ca         1 AM8       0.162600
     26 CAZ         10.0800    -0.6050    -0.5460 ca         1 AM8      -0.204000
     27 CBA         10.4720     0.5330     0.1320 ca         1 AM8       0.059400
     28 ClBM         9.6600     2.0400    -0.1610 cl         1 AM8      -0.101400
     29 CBB         11.5090     0.4740     1.0470 ca         1 AM8      -0.143000
     30 CBC         12.1580    -0.7250     1.2830 ca         1 AM8      -0.093000
     31 CBD         11.7680    -1.8670     0.6120 ca         1 AM8      -0.158000
     32 HAA1        -0.3610     1.0190     0.0650 hc         1 AM8       0.037700
     33 HAA2        -0.3610    -0.5660     0.8500 hc         1 AM8       0.037700
     34 HAA3        -0.3610    -0.4530    -0.9150 hc         1 AM8       0.037700
     35 HAE1         1.0160     0.6320     2.6780 hc         1 AM8       0.044700
     36 HAE2         2.6860     0.3780     3.2030 hc         1 AM8       0.044700
     37 HAE3         1.6410    -1.0110     2.8740 hc         1 AM8       0.044700
     38 HAG1         1.3120    -0.9320    -2.7270 hc         1 AM8       0.046700
     39 HAG2         1.1850     0.8320    -2.6930 hc         1 AM8       0.046700
     40 HAG3         2.7030     0.0630    -3.1770 hc         1 AM8       0.046700
     41 HNAH         4.4080    -0.0070    -1.2560 hn         1 AM8       0.292700
     42 HAJ1         5.6760     0.4320     1.0210 hc         1 AM8       0.074700
     43 HAJ2         4.6590     0.5900     2.4600 hc         1 AM8       0.074700
     44 HAM          6.9970    -1.2310    -0.3950 ha         1 AM8       0.161000
     45 HAR          6.8780    -5.5060     2.2120 ha         1 AM8       0.162000
     46 HAS          8.3160    -5.2270     0.2590 ha         1 AM8       0.149000
     47 HBE1        12.2550    -3.6350    -1.4930 h1         1 AM8       0.056367
     48 HBE2        11.4070    -4.6190    -0.2920 h1         1 AM8       0.056367
     49 HBE3        10.9350    -4.7000    -1.9950 h1         1 AM8       0.056367
     50 HAZ          9.3190    -0.5430    -1.3140 ha         1 AM8       0.201000
     51 HBB         11.8160     1.3680     1.5760 ha         1 AM8       0.147000
     52 HBC         12.9680    -0.7690     2.0000 ha         1 AM8       0.142000
     53 HBD         12.2770    -2.8050     0.7980 ha         1 AM8       0.140000
@<TRIPOS>BOND
     1    24    23 1
     2    23    25 1
     3    23    20 1
     4    22    20 2
     5    26    25 ar
     6    26    27 ar
     7    28    27 1
     8    25    31 ar
     9    18    17 ar
    10    18    19 ar
    11    27    29 ar
    12    20    19 1
    13    20    21 2
    14    17    16 ar
    15    19    12 ar
    16    31    30 ar
    17    29    30 ar
    18    16    15 2
    19    16    11 ar
    20    12    11 ar
    21    15    13 1
    22    11    10 2
    23    13    10 1
    24    13    14 2
    25    10     9 1
    26     9     8 1
    27     8     7 1
    28     8     3 2
    29     4     3 1
    30     7     5 1
    31     3     2 1
    32     5     2 2
    33     5     6 1
    34     2     1 1
    35     1    32 1
    36     1    33 1
    37     1    34 1
    38     4    35 1
    39     4    36 1
    40     4    37 1
    41     6    38 1
    42     6    39 1
    43     6    40 1
    44     7    41 1
    45     9    42 1
    46     9    43 1
    47    12    44 1
    48    17    45 1
    49    18    46 1
    50    24    47 1
    51    24    48 1
    52    24    49 1
    53    26    50 1
    54    29    51 1
    55    30    52 1
    56    31    53 1
@<TRIPOS>SUBSTRUCTURE
     1 AM8         1 TEMP              0 ****  ****    0 ROOT
