@<TRIPOS>MOLECULE
AM9
   70    76     1     0     0
SMALL
bcc


@<TRIPOS>ATOM
      1 C1           0.0000     0.0000     0.0000 ca         1 AM9       0.740900
      2 N1           1.3270     0.0000     0.0000 nb         1 AM9      -0.722000
      3 C2           1.9950     0.0000     1.1420 ca         1 AM9       0.426800
      4 C3           1.2720    -0.0010     2.3520 ca         1 AM9      -0.510200
      5 C4          -0.1220     0.0000     2.3050 ca         1 AM9       0.588200
      6 N2          -0.7110     0.0000     1.1200 nb         1 AM9      -0.713000
      7 N3          -0.6640     0.0070    -1.2100 nu         1 AM9      -0.252300
      8 C5          -2.0600    -0.1100    -1.2420 ca         1 AM9      -0.049400
      9 C6          -2.7900     0.5510    -2.2220 ca         1 AM9      -0.081500
     10 C7          -4.1660     0.4360    -2.2540 ca         1 AM9      -0.131000
     11 C8          -4.8190    -0.3400    -1.3060 ca         1 AM9       0.020600
     12 C9          -4.0900    -1.0020    -0.3270 ca         1 AM9      -0.131000
     13 C10         -2.7140    -0.8910    -0.2990 ca         1 AM9      -0.081500
     14 N4           3.3770    -0.0010     1.1820 na         1 AM9       0.325900
     15 C11          4.0440    -0.0020     2.3760 cc         1 AM9       0.148400
     16 N5           3.3620    -0.0020     3.5790 n          1 AM9       0.193500
     17 C12          2.0130    -0.0010     3.6190 c          1 AM9       0.638100
     18 C13          4.3280    -0.0020     0.1710 ca         1 AM9      -0.266200
     19 C14          5.5770    -0.0030     0.8120 ca         1 AM9       0.096400
     20 N6           5.3410    -0.0030     2.1490 nd         1 AM9      -0.532100
     21 C15          4.2590    -0.0010    -1.2130 ca         1 AM9      -0.058000
     22 C16          5.4210    -0.0030    -1.9580 ca         1 AM9      -0.106000
     23 C17          6.6580    -0.0040    -1.3300 ca         1 AM9      -0.098000
     24 C18          6.7440    -0.0040     0.0440 ca         1 AM9      -0.056000
     25 O1           1.4240    -0.0010     4.6840 o          1 AM9      -0.648500
     26 C19          4.0840    -0.0030     4.7790 ca         1 AM9      -0.113400
     27 C20          4.4430     1.1990     5.3760 ca         1 AM9      -0.040800
     28 C21          5.1560     1.1950     6.5580 ca         1 AM9      -0.109000
     29 C22          5.5110    -0.0040     7.1490 ca         1 AM9      -0.070000
     30 C23          5.1550    -1.2030     6.5570 ca         1 AM9      -0.109000
     31 C24          4.4370    -1.2050     5.3780 ca         1 AM9      -0.040800
     32 C25          4.0430    -2.5110     4.7370 c3         1 AM9       0.048200
     33 C26          4.0570     2.5060     4.7330 c3         1 AM9       0.048200
     34 N7          -6.2130    -0.4560    -1.3380 nh         1 AM9      -0.363000
     35 C27         -6.6710    -0.9520    -2.6430 c3         1 AM9       0.135800
     36 C28         -8.2010    -0.9890    -2.6640 c3         1 AM9       0.153300
     37 N8          -8.6830    -1.8520    -1.5780 n3         1 AM9      -0.549600
     38 C29         -8.2250    -1.3560    -0.2730 c3         1 AM9       0.153300
     39 C30         -6.6950    -1.3190    -0.2510 c3         1 AM9       0.135800
     40 C31        -10.1470    -1.9740    -1.6110 c3         1 AM9       0.189100
     41 H4          -0.7080     0.0010     3.2160 h4         1 AM9       0.008100
     42 HN3         -0.1470     0.0640    -2.0650 hn         1 AM9       0.292800
     43 H6          -2.2800     1.1560    -2.9620 ha         1 AM9       0.118500
     44 H7          -4.7350     0.9510    -3.0180 ha         1 AM9       0.121000
     45 H9          -4.6000    -1.6090     0.4110 ha         1 AM9       0.121000
     46 H10         -2.1450    -1.4060     0.4650 ha         1 AM9       0.118500
     47 H15          3.2960    -0.0010    -1.7090 ha         1 AM9       0.119000
     48 H16          5.3660    -0.0030    -3.0400 ha         1 AM9       0.105000
     49 H17          7.5630    -0.0050    -1.9260 ha         1 AM9       0.105000
     50 H18          7.7130    -0.0040     0.5280 ha         1 AM9       0.114000
     51 H21          5.4370     2.1320     7.0240 ha         1 AM9       0.109000
     52 H22          6.0730    -0.0050     8.0760 ha         1 AM9       0.101000
     53 H23          5.4330    -2.1400     7.0230 ha         1 AM9       0.109000
     54 H25          4.2750    -3.3280     5.4100 hc         1 AM9       0.013700
     55 H25A         4.5910    -2.6390     3.8120 hc         1 AM9       0.013700
     56 H25B         2.9800    -2.5050     4.5290 hc         1 AM9       0.013700
     57 H26          3.0010     2.4930     4.4950 hc         1 AM9       0.013700
     58 H26A         4.6310     2.6440     3.8240 hc         1 AM9       0.013700
     59 H26B         4.2630     3.3190     5.4180 hc         1 AM9       0.013700
     60 H27         -6.3160    -0.2910    -3.4240 h1         1 AM9       0.024200
     61 H27A        -6.2850    -1.9510    -2.8040 h1         1 AM9       0.024200
     62 H28         -8.5880     0.0140    -2.5260 h1         1 AM9       0.015450
     63 H28A        -8.5390    -1.3840    -3.6150 h1         1 AM9       0.015450
     64 H29         -8.5810    -2.0170     0.5090 h1         1 AM9       0.015450
     65 H29A        -8.6120    -0.3570    -0.1120 h1         1 AM9       0.015450
     66 H30         -6.3580    -0.9240     0.6990 h1         1 AM9       0.024200
     67 H30A        -6.3090    -2.3220    -0.3890 h1         1 AM9       0.024200
     68 H31        -10.5940    -0.9990    -1.4600 h1         1 AM9       0.001033
     69 H31A       -10.4710    -2.6460    -0.8250 h1         1 AM9       0.001033
     70 H31B       -10.4550    -2.3680    -2.5720 h1         1 AM9       0.001033
@<TRIPOS>BOND
     1     1     2 ar  
     2     1     6 ar  
     3     1     7 1   
     4     2     3 ar  
     5     3     4 ar  
     6     3    14 1   
     7     4     5 ar  
     8     4    17 1   
     9     5     6 ar  
    10     5    41 1   
    11     7     8 1   
    12     7    42 1   
    13     8     9 ar  
    14     8    13 ar  
    15     9    10 ar  
    16     9    43 1   
    17    10    11 ar  
    18    10    44 1   
    19    11    12 ar  
    20    11    34 1   
    21    12    13 ar  
    22    12    45 1   
    23    13    46 1   
    24    14    15 1   
    25    14    18 1   
    26    15    16 1   
    27    15    20 2   
    28    16    17 1   
    29    16    26 1   
    30    17    25 2   
    31    18    19 ar  
    32    18    21 ar  
    33    19    20 1   
    34    19    24 ar  
    35    21    22 ar  
    36    21    47 1   
    37    22    23 ar  
    38    22    48 1   
    39    23    24 ar  
    40    23    49 1   
    41    24    50 1   
    42    26    27 ar  
    43    26    31 ar  
    44    27    28 ar  
    45    27    33 1   
    46    28    29 ar  
    47    28    51 1   
    48    29    30 ar  
    49    29    52 1   
    50    30    31 ar  
    51    30    53 1   
    52    31    32 1   
    53    32    54 1   
    54    32    55 1   
    55    32    56 1   
    56    33    57 1   
    57    33    58 1   
    58    33    59 1   
    59    34    35 1   
    60    34    39 1   
    61    35    36 1   
    62    35    60 1   
    63    35    61 1   
    64    36    37 1   
    65    36    62 1   
    66    36    63 1   
    67    37    38 1   
    68    37    40 1   
    69    38    39 1   
    70    38    64 1   
    71    38    65 1   
    72    39    66 1   
    73    39    67 1   
    74    40    68 1   
    75    40    69 1   
    76    40    70 1   
@<TRIPOS>SUBSTRUCTURE
     1 AM9         1 TEMP              0 ****  ****    0 ROOT
