@<TRIPOS>MOLECULE
AMA
   40    40     1     0     0
SMALL
bcc


@<TRIPOS>ATOM
      1 N1           0.0000     0.0000     0.0000 nb         1 AMA      -0.640000
      2 C2           1.3170     0.0000     0.0000 ca         1 AMA       0.226600
      3 C2A          2.0630    -0.0060    -1.3100 c3         1 AMA      -0.011400
      4 C3           2.0250     0.0000     1.1930 ca         1 AMA      -0.002200
      5 O3           3.3840     0.0000     1.1860 oh         1 AMA      -0.457100
      6 C4           1.3250     0.0110     2.3940 ca         1 AMA      -0.071300
      7 C4A          2.0530     0.0190     3.7130 c3         1 AMA       0.146100
      8 C5          -0.0590     0.0120     2.3490 ca         1 AMA      -0.122600
      9 C6          -0.6950     0.0050     1.1210 ca         1 AMA       0.358200
     10 C5A         -0.8640     0.0160     3.6220 c3         1 AMA       0.258700
     11 OP4         -2.2570     0.0150     3.3060 os         1 AMA      -0.474200
     12 P           -3.0530     0.0200     4.7060 p5         1 AMA       0.668900
     13 OP1         -2.6900     1.2330     5.4730 o          1 AMA      -0.767500
     14 OP2         -4.6370     0.0190     4.4230 o          1 AMA      -0.767500
     15 OP3         -2.6560    -1.2890     5.5540 o          1 AMA      -0.767500
     16 N            2.2910    -1.3630     4.1490 n7         1 AMA      -0.572200
     17 CA           3.0010    -1.2840     5.4310 c3         1 AMA       0.027200
     18 C            4.3040    -0.5530     5.2420 c          1 AMA       0.970600
     19 O            4.7740     0.0900     6.1510 o          1 AMA      -0.915800
     20 CB2          2.1370    -0.5360     6.4470 c3         1 AMA      -0.036100
     21 CB1          3.2820    -2.6980     5.9470 c3         1 AMA      -0.106400
     22 CG           4.0100    -2.6180     7.2630 c          1 AMA       0.975600
     23 OD1          4.2770    -1.5420     7.7410 o          1 AMA      -0.919300
     24 OD2          4.3620    -3.7430     7.9050 o          1 AMA      -0.919300
     25 OXT          4.9420    -0.6120     4.0630 o          1 AMA      -0.915800
     26 H2A1         2.7610    -0.8350    -1.3240 hc         1 AMA      -0.017967
     27 H2A2         1.3590    -0.1140    -2.1260 hc         1 AMA      -0.017967
     28 H2A3         2.6060     0.9250    -1.4210 hc         1 AMA      -0.017967
     29 HO3          3.6970     0.8590     0.9560 ho         1 AMA       0.367000
     30 H4A1         3.0010     0.5300     3.5980 h1         1 AMA       0.049700
     31 H4A2         1.4530     0.5330     4.4530 h1         1 AMA       0.049700
     32 H6          -1.7770     0.0050     1.0780 h4         1 AMA       0.014100
     33 H5A1        -0.6250     0.9030     4.1970 h1         1 AMA       0.046200
     34 H5A2        -0.6240    -0.8660     4.2030 h1         1 AMA       0.046200
     35 HN           2.8660    -1.8310     3.4770 hn         1 AMA       0.257800
     36 HB21         2.5030    -0.7320     7.4470 hc         1 AMA       0.019033
     37 HB22         1.1100    -0.8730     6.3650 hc         1 AMA       0.019033
     38 HB23         2.1850     0.5280     6.2470 hc         1 AMA       0.019033
     39 HB11         2.3460    -3.2250     6.0830 hc         1 AMA       0.001700
     40 HB12         3.8940    -3.2290     5.2280 hc         1 AMA       0.001700
@<TRIPOS>BOND
     1     1     2 ar  
     2     1     9 ar  
     3     2     3 1   
     4     2     4 ar  
     5     3    26 1   
     6     3    27 1   
     7     3    28 1   
     8     4     5 1   
     9     4     6 ar  
    10     5    29 1   
    11     6     7 1   
    12     6     8 ar  
    13     7    16 1   
    14     7    30 1   
    15     7    31 1   
    16     8     9 ar  
    17     8    10 1   
    18     9    32 1   
    19    10    11 1   
    20    10    33 1   
    21    10    34 1   
    22    11    12 1   
    23    12    13 1   
    24    12    14 1   
    25    12    15 1   
    26    16    17 1   
    27    16    35 1   
    28    17    18 1   
    29    17    20 1   
    30    17    21 1   
    31    18    19 1   
    32    18    25 1   
    33    20    36 1   
    34    20    37 1   
    35    20    38 1   
    36    21    22 1   
    37    21    39 1   
    38    21    40 1   
    39    22    23 1   
    40    22    24 1   
@<TRIPOS>SUBSTRUCTURE
     1 AMA         1 TEMP              0 ****  ****    0 ROOT
