@<TRIPOS>MOLECULE
AMB
   18    17     1     0     0
SMALL
bcc


@<TRIPOS>ATOM
      1 CB           0.0000     0.0000     0.0000 c2         1 AMB      -0.270200
      2 CG          -0.6580    -0.9880    -0.5710 c2         1 AMB       0.099100
      3 OD           0.0200    -2.0050    -1.1560 os         1 AMB      -0.291900
      4 CE          -0.9580    -2.9070    -1.6780 c3         1 AMB       0.236700
      5 C            2.0090     1.2290    -0.7090 c          1 AMB       0.959600
      6 O            2.2330     1.1960    -2.0320 o          1 AMB      -0.821800
      7 OXT          2.2110     2.2460    -0.0880 o          1 AMB      -0.821800
      8 N            1.9950     0.0000     1.3850 nz         1 AMB       0.092400
      9 CA           1.5060     0.0000     0.0000 c3         1 AMB      -0.138300
     10 HB          -0.5420     0.8130     0.4680 ha         1 AMB       0.136000
     11 HG          -1.7410    -0.9880    -0.5710 h4         1 AMB       0.108000
     12 HE3         -1.5750    -2.3910    -2.4030 h1         1 AMB      -0.000967
     13 HE2         -0.4600    -3.7420    -2.1560 h1         1 AMB      -0.000967
     14 HE1         -1.5800    -3.2730    -0.8700 h1         1 AMB      -0.000967
     15 H2           1.4150     0.5950     1.9430 hn         1 AMB       0.205800
     16 H1           1.9650    -0.9320     1.7500 hn         1 AMB       0.205800
     17 HA           1.8680    -0.8850    -0.5100 hx         1 AMB       0.097700
     18 HN3          2.9370     0.3370     1.4070 hn         1 AMB       0.205800
@<TRIPOS>BOND
     1     1     2 2   
     2     1     9 1   
     3     1    10 1   
     4     2     3 1   
     5     2    11 1   
     6     3     4 1   
     7     4    12 1   
     8     4    13 1   
     9     4    14 1   
    10     5     6 1   
    11     5     7 1   
    12     5     9 1   
    13     8     9 1   
    14     8    15 1   
    15     8    16 1   
    16     8    18 1   
    17     9    17 1   
@<TRIPOS>SUBSTRUCTURE
     1 AMB         1 TEMP              0 ****  ****    0 ROOT
