@<TRIPOS>MOLECULE
molecule
   18    17     1     0     0
SMALL
bcc


@<TRIPOS>ATOM
      1 CB           0.0000     0.0000     0.0000 c2         1 AMB      -0.488200
      2 CG          -0.6580    -0.9880    -0.5710 c2         1 AMB      -0.062900
      3 OD           0.0200    -2.0050    -1.1560 os         1 AMB      -0.328900
      4 CE          -0.9580    -2.9070    -1.6780 c3         1 AMB       0.129700
      5 C            2.0090     1.2290    -0.7090 c          1 AMB       0.896600
      6 O            2.2330     1.1960    -2.0320 o          1 AMB      -0.762800
      7 OXT          2.2110     2.2460    -0.0880 o          1 AMB      -0.762800
      8 N            1.9950     0.0000     1.3850 nz         1 AMB      -0.821600
      9 CA           1.5060     0.0000     0.0000 c3         1 AMB       0.033700
     10 HB           0.6110    -0.5960     0.6670 ha         1 AMB       0.165000
     11 HG          -0.1910    -0.9290    -1.5470 h4         1 AMB       0.404000
     12 HE3         -1.6400    -3.1970    -0.8880 h1         1 AMB       0.068033
     13 HE2         -0.4640    -3.7890    -2.0690 h1         1 AMB       0.068033
     14 HE1         -1.5110    -2.4210    -2.4730 h1         1 AMB       0.068033
     15 H2           1.9270    -0.9240     1.7630 hn         1 AMB       0.442467
     16 H1           2.9500     0.2980     1.4020 hn         1 AMB       0.442467
     17 HA           1.8680    -0.8850    -0.5100 hx         1 AMB       0.068700
     18 HN3          1.4400     0.6260     1.9350 hn         1 AMB       0.442467
@<TRIPOS>BOND
     1     1     2 2
     2     1     9 1
     3     1    10 1
     4     2     3 1
     5     2    11 1
     6     3     4 1
     7     4    12 1
     8     4    13 1
     9     4    14 1
    10     5     6 1
    11     5     7 1
    12     5     9 1
    13     8     9 1
    14     8    15 1
    15     8    16 1
    16     9    17 1
    17    18     8 1
@<TRIPOS>SUBSTRUCTURE
     1 AMB         1 TEMP              0 ****  ****    0 ROOT
