@<TRIPOS>MOLECULE
molecule
   24    24     1     0     0
SMALL
bcc


@<TRIPOS>ATOM
      1 C1           0.0000     0.0000     0.0000 c3         1 AMC      -0.102700
      2 C2           1.5300     0.0000     0.0000 c3         1 AMC      -0.079900
      3 C3           2.0410     0.0000     1.4420 c3         1 AMC      -0.075900
      4 C4           1.5300    -1.2490     2.1650 c3         1 AMC      -0.083400
      5 C5           0.0010    -1.2480     2.1640 c3         1 AMC      -0.075900
      6 C6          -0.5100    -1.2480     0.7220 c3         1 AMC      -0.079900
      7 CM          -0.5090    -0.0010    -1.4420 c3         1 AMC       0.094800
      8 N           -0.1210     1.2550    -2.1000 nz         1 AMC      -0.809600
      9 H1          -0.3590     0.8840     0.5140 hc         1 AMC       0.069700
     10 H21          1.8900     0.8860    -0.5090 hc         1 AMC       0.047200
     11 H22          1.8900    -0.8860    -0.5090 hc         1 AMC       0.047200
     12 H31          1.6780     0.8840     1.9520 hc         1 AMC       0.060450
     13 H32          3.1240    -0.0030     1.4400 hc         1 AMC       0.060450
     14 H41          1.8900    -1.2460     3.1860 hc         1 AMC       0.061200
     15 H42          1.8900    -2.1330     1.6520 hc         1 AMC       0.061200
     16 H51         -0.3590    -2.1340     2.6730 hc         1 AMC       0.060450
     17 H52         -0.3580    -0.3620     2.6730 hc         1 AMC       0.060450
     18 H61         -0.1470    -2.1320     0.2120 hc         1 AMC       0.047200
     19 H62         -1.5930    -1.2460     0.7250 hc         1 AMC       0.047200
     20 HM1         -0.0770    -0.8370    -1.9770 hx         1 AMC       0.110700
     21 HM2         -1.5890    -0.0910    -1.4430 hx         1 AMC       0.110700
     22 HN1         -0.7230     1.4220    -2.8810 hn         1 AMC       0.456467
     23 HN2          0.8260     1.1870    -2.4160 hn         1 AMC       0.456467
     24 HN3         -0.2020     2.0110    -1.4490 hn         1 AMC       0.456467
@<TRIPOS>BOND
     1     1     2 1
     2     1     6 1
     3     1     7 1
     4     1     9 1
     5     2     3 1
     6     2    10 1
     7     2    11 1
     8     3     4 1
     9     3    12 1
    10     3    13 1
    11     4     5 1
    12     4    14 1
    13     4    15 1
    14     5     6 1
    15     5    16 1
    16     5    17 1
    17     6    18 1
    18     6    19 1
    19     7     8 1
    20     7    20 1
    21     7    21 1
    22     8    22 1
    23     8    23 1
    24     8    24 1
@<TRIPOS>SUBSTRUCTURE
     1 AMC         1 TEMP              0 ****  ****    0 ROOT
