@<TRIPOS>MOLECULE
molecule
   48    50     1     0     0
SMALL
bcc


@<TRIPOS>ATOM
      1 P            0.0000     0.0000     0.0000 p5         1 AMD       1.286800
      2 O1P          1.6100     0.0000     0.0000 o          1 AMD      -0.783000
      3 O2P         -0.4940     0.0000     1.3950 o          1 AMD      -0.783000
      4 O3P         -0.5380    -1.3130    -0.7600 os         1 AMD      -0.515500
      5 O5'         -0.5360     1.3150    -0.7590 os         1 AMD      -0.536200
      6 C5'         -0.1290     2.4390     0.0240 c3         1 AMD       0.166400
      7 C4'         -0.6090     3.7280    -0.6450 c3         1 AMD       0.140100
      8 O4'         -2.0480     3.8290    -0.5810 os         1 AMD      -0.394600
      9 C1'         -2.3780     5.2180    -0.7430 c3         1 AMD       0.255800
     10 N9          -3.5630     5.5440     0.0550 na         1 AMD      -0.251000
     11 C4          -4.4270     6.5880    -0.1640 ca         1 AMD       0.455800
     12 N3          -4.5170     7.5590    -1.0670 nb         1 AMD      -0.777000
     13 C2          -5.4990     8.4350    -1.0150 ca         1 AMD       0.712900
     14 N1          -6.4350     8.3950    -0.0850 nb         1 AMD      -0.818000
     15 C6          -6.4310     7.4570     0.8570 ca         1 AMD       0.774200
     16 N6          -7.4170     7.4250     1.8280 nv         1 AMD      -1.021500
     17 C5          -5.4040     6.4990     0.8430 ca         1 AMD      -0.185200
     18 N7          -5.0860     5.4320     1.6160 nc         1 AMD      -0.600100
     19 C8          -4.0060     4.8710     1.1540 cd         1 AMD       0.455700
     20 C2'         -1.1690     6.0380    -0.2500 c3         1 AMD      -0.159400
     21 C3'         -0.1200     4.9680     0.1450 c3         1 AMD       0.109100
     22 O3'          1.1900     5.3610    -0.2690 oh         1 AMD      -0.590800
     23 N           -0.0410    -4.9330    -0.5030 nz         1 AMD      -0.792600
     24 CA          -0.8010    -3.7600    -0.9570 c3         1 AMD       0.063500
     25 CB          -2.2840    -3.9610    -0.6430 c3         1 AMD      -0.209400
     26 CG          -2.8180    -5.1180    -1.4490 c          1 AMD       0.877600
     27 OD1         -4.1050    -5.4780    -1.3350 o          1 AMD      -0.830800
     28 OD2         -2.0860    -5.7190    -2.1980 o          1 AMD      -0.830800
     29 C           -0.2990    -2.5310    -0.2460 c          1 AMD       0.687100
     30 O            0.3190    -2.6400     0.7870 o          1 AMD      -0.524000
     31 H5'1         0.9520     2.4530     0.1020 h1         1 AMD       0.070700
     32 H5'2        -0.5610     2.3640     1.0150 h1         1 AMD       0.070700
     33 H4'         -0.2720     3.7780    -1.6740 h1         1 AMD       0.077700
     34 H1'         -2.5630     5.4310    -1.7890 h2         1 AMD       0.087700
     35 H2          -5.5400     9.2170    -1.7640 h5         1 AMD       0.054100
     36 H61         -7.7090     8.2730     2.2720 hn         1 AMD       0.443800
     37 H62         -7.8300     6.5530     2.0930 hn         1 AMD       0.443800
     38 H8          -3.5300     3.9970     1.5820 h5         1 AMD       0.102800
     39 H2'1        -0.7880     6.6640    -1.0470 hc         1 AMD       0.070200
     40 H2'2        -1.4440     6.6340     0.6120 hc         1 AMD       0.070200
     41 H3'         -0.1530     4.7780     1.2110 h1         1 AMD       0.056700
     42 HO'3         1.6400     5.7650     0.4540 ho         1 AMD       0.404000
     43 HA          -0.6710    -3.6380    -2.0260 hx         1 AMD       0.135700
     44 HB1         -2.4040    -4.1710     0.4130 hc         1 AMD       0.085700
     45 HB2         -2.8320    -3.0620    -0.8960 hc         1 AMD       0.085700
     46 HN2          0.8170    -4.6330    -0.0850 hn         1 AMD       0.452467
     47 H21         -0.5810    -5.4400     0.1700 hn         1 AMD       0.452467
     48 H            0.1580    -5.5250    -1.2850 hn         1 AMD       0.452467
@<TRIPOS>BOND
     1     1     2 1
     2     1     3 1
     3     1     4 1
     4     1     5 1
     5     4    29 1
     6     5     6 1
     7     6     7 1
     8     6    31 1
     9     6    32 1
    10     7     8 1
    11     7    21 1
    12     7    33 1
    13     8     9 1
    14     9    10 1
    15     9    20 1
    16     9    34 1
    17    10    11 1
    18    10    19 1
    19    11    12 ar
    20    11    17 ar
    21    12    13 ar
    22    13    14 ar
    23    13    35 1
    24    14    15 ar
    25    15    16 1
    26    15    17 ar
    27    16    36 1
    28    16    37 1
    29    17    18 1
    30    18    19 2
    31    19    38 1
    32    20    21 1
    33    20    39 1
    34    20    40 1
    35    21    22 1
    36    21    41 1
    37    22    42 1
    38    23    24 1
    39    23    48 1
    40    23    46 1
    41    24    25 1
    42    24    29 1
    43    24    43 1
    44    25    26 1
    45    25    44 1
    46    25    45 1
    47    26    27 1
    48    26    28 1
    49    29    30 2
    50    47    23 1
@<TRIPOS>SUBSTRUCTURE
     1 AMD         1 TEMP              0 ****  ****    0 ROOT
