@<TRIPOS>MOLECULE
AME
   24    23     1     0     0
SMALL
bcc


@<TRIPOS>ATOM
      1 CT2          0.0000     0.0000     0.0000 c3         1 AME      -0.073100
      2 CT1          1.5070     0.0000     0.0000 c          1 AME       0.568100
      3 OT           2.1130     0.0000     1.0500 o          1 AME      -0.663100
      4 CB           4.1560    -0.6100    -2.4750 c3         1 AME      -0.007400
      5 CG           3.7510    -2.0840    -2.5420 c3         1 AME       0.083700
      6 SD           4.3560    -2.8070    -4.0930 ss         1 AME      -0.419200
      7 CE           3.7490    -4.5060    -3.9040 c3         1 AME       0.100000
      8 C            4.1490     1.4150    -1.0440 c          1 AME       0.977600
      9 O            3.3630     2.3300    -0.9640 o          1 AME      -0.886800
     10 OXT          5.4680     1.6590    -1.0230 o          1 AME      -0.886800
     11 N            2.1810     0.0000    -1.1670 ns         1 AME      -0.147900
     12 CA           3.6460    -0.0000    -1.1680 c3         1 AME      -0.099300
     13 HT23        -0.3610     0.1880     1.0040 hc         1 AME       0.009367
     14 HT22        -0.3610     0.7750    -0.6650 hc         1 AME       0.009367
     15 HT21        -0.3610    -0.9630    -0.3390 hc         1 AME       0.009367
     16 HB2          3.7230    -0.0780    -3.3140 hc         1 AME       0.042700
     17 HB1          5.2350    -0.5300    -2.5140 hc         1 AME       0.042700
     18 HG2          4.1830    -2.6150    -1.7030 h1         1 AME       0.029700
     19 HG1          2.6710    -2.1640    -2.5030 h1         1 AME       0.029700
     20 HE3          4.1870    -4.9500    -3.0180 h1         1 AME       0.023367
     21 HE2          4.0280    -5.0880    -4.7750 h1         1 AME       0.023367
     22 HE1          2.6700    -4.4960    -3.8070 h1         1 AME       0.023367
     23 HN1          1.6810     0.0380    -2.0340 hn         1 AME       0.153500
     24 HA           4.0070    -0.5860    -0.3310 h1         1 AME       0.055700
@<TRIPOS>BOND
     1     1     2 1   
     2     1    13 1   
     3     1    14 1   
     4     1    15 1   
     5     2     3 2   
     6     2    11 1   
     7     4     5 1   
     8     4    12 1   
     9     4    16 1   
    10     4    17 1   
    11     5     6 1   
    12     5    18 1   
    13     5    19 1   
    14     6     7 1   
    15     7    20 1   
    16     7    21 1   
    17     7    22 1   
    18     8     9 1   
    19     8    10 1   
    20     8    12 1   
    21    11    12 1   
    22    11    23 1   
    23    12    24 1   
@<TRIPOS>SUBSTRUCTURE
     1 AME         1 TEMP              0 ****  ****    0 ROOT
