@<TRIPOS>MOLECULE
molecule
   50    51     1     0     0
SMALL
bcc


@<TRIPOS>ATOM
      1 O4           0.0000     0.0000     0.0000 oh         1 AMF      -0.598800
      2 C4           1.4300     0.0000     0.0000 c3         1 AMF       0.122100
      3 C5           1.9420     0.0000     1.4430 c3         1 AMF       0.232500
      4 C6           1.5210    -1.2810     2.1600 c3         1 AMF       0.019700
      5 S1           3.0760    -1.9710     2.8020 ss         1 AMF      -0.353300
      6 C3           1.9420     1.2560    -0.7110 c3         1 AMF       0.123100
      7 O3           1.4330     1.2860    -2.0470 oh         1 AMF      -0.600800
      8 C2           3.4710     1.2430    -0.7520 c3         1 AMF       0.101100
      9 O2           3.9370     2.3820    -1.4780 oh         1 AMF      -0.602800
     10 C1           4.0260     1.2860     0.6750 c3         1 AMF       0.462300
     11 O1           5.4430     1.1080     0.6500 oh         1 AMF      -0.558800
     12 N1           3.3900     0.1760     1.4380 nh         1 AMF      -0.810600
     13 C7           4.1270    -0.7160     2.1440 c2         1 AMF       0.698100
     14 N2           5.4200    -0.6620     2.3080 n2         1 AMF      -0.638900
     15 C8           6.1040    -1.6960     3.0870 c3         1 AMF       0.134800
     16 C9           7.0420    -2.4870     2.1740 c3         1 AMF      -0.078400
     17 C10          7.7560    -3.5680     2.9880 c3         1 AMF      -0.084400
     18 C11          8.6940    -4.3580     2.0740 c3         1 AMF      -0.080400
     19 C12          9.4080    -5.4390     2.8880 c3         1 AMF      -0.082400
     20 C13         10.3460    -6.2300     1.9740 c3         1 AMF      -0.081400
     21 C14         11.0600    -7.3100     2.7870 c3         1 AMF      -0.084400
     22 C15         11.9990    -8.1010     1.8740 c3         1 AMF      -0.092100
     23 H4          -0.3140    -0.6480    -0.6090 ho         1 AMF       0.417000
     24 HA           1.7970    -0.8810    -0.5130 h1         1 AMF       0.058700
     25 H5           1.4990     0.8410     1.9620 h1         1 AMF       0.070700
     26 H3           1.6060     2.1340    -0.1730 h1         1 AMF       0.055700
     27 H61C         1.1640    -1.9640     1.3990 h1         1 AMF       0.095200
     28 H62C         0.9320    -0.9810     3.0180 h1         1 AMF       0.095200
     29 HB           0.9100     2.0610    -2.1660 ho         1 AMF       0.416000
     30 H2           3.8090     0.3360    -1.2400 h1         1 AMF       0.068700
     31 HC           4.4560     2.0970    -2.2120 ho         1 AMF       0.418000
     32 H81C         5.3700    -2.3660     3.5190 h1         1 AMF       0.043200
     33 H82C         6.6780    -1.2310     3.8790 h1         1 AMF       0.043200
     34 H91C         7.7750    -1.8170     1.7420 hc         1 AMF       0.050700
     35 H92C         6.4680    -2.9520     1.3820 hc         1 AMF       0.050700
     36 H101         7.0230    -4.2380     3.4190 hc         1 AMF       0.040700
     37 H102         8.3310    -3.1030     3.7790 hc         1 AMF       0.040700
     38 H111         8.1190    -4.8230     1.2820 hc         1 AMF       0.042200
     39 H112         9.4270    -3.6880     1.6420 hc         1 AMF       0.042200
     40 H121         9.9830    -4.9740     3.6790 hc         1 AMF       0.040700
     41 H122         8.6750    -6.1100     3.3190 hc         1 AMF       0.040700
     42 H131        11.0790    -5.5590     1.5420 hc         1 AMF       0.040700
     43 H132         9.7710    -6.6950     1.1820 hc         1 AMF       0.040700
     44 H141        11.6350    -6.8450     3.5800 hc         1 AMF       0.039700
     45 H142        10.3270    -7.9810     3.2190 hc         1 AMF       0.039700
     46 H151        12.7320    -7.4310     1.4420 hc         1 AMF       0.032367
     47 H152        11.4250    -8.5670     1.0820 hc         1 AMF       0.032367
     48 H153        12.5040    -8.8660     2.4510 hc         1 AMF       0.032367
     49 H154         5.8670     1.9440     0.7490 ho         1 AMF       0.417000
     50 H155         3.7780     2.2350     1.1350 h2         1 AMF       0.049700
@<TRIPOS>BOND
     1    17    18 1
     2    18    19 1
     3    19    20 1
     4    20    21 1
     5    21    22 1
     6     1    23 1
     7     2    24 1
     8     3    25 1
     9     6    26 1
    10     4    27 1
    11     4    28 1
    12     7    29 1
    13     8    30 1
    14     9    31 1
    15    15    32 1
    16    15    33 1
    17    16    34 1
    18    16    35 1
    19    17    36 1
    20    17    37 1
    21    18    38 1
    22    18    39 1
    23    19    40 1
    24    19    41 1
    25    20    42 1
    26    20    43 1
    27    21    44 1
    28    21    45 1
    29    22    46 1
    30    22    47 1
    31    22    48 1
    32    11    49 1
    33    10    50 1
    34     1     2 1
    35     2     3 1
    36     3     4 1
    37     4     5 1
    38     2     6 1
    39     6     7 1
    40     6     8 1
    41     8     9 1
    42     8    10 1
    43    10    11 1
    44     3    12 1
    45    10    12 1
    46     5    13 1
    47    12    13 1
    48    13    14 2
    49    14    15 1
    50    15    16 1
    51    16    17 1
@<TRIPOS>SUBSTRUCTURE
     1 AMF         1 TEMP              0 ****  ****    0 ROOT
