@<TRIPOS>MOLECULE
AMF
   50    51     1     0     0
SMALL
bcc


@<TRIPOS>ATOM
      1 O4           0.0000     0.0000     0.0000 oh         1 AMF      -0.578800
      2 C4           1.4300     0.0000     0.0000 c3         1 AMF       0.159100
      3 C5           1.9420     0.0000     1.4430 c3         1 AMF       0.135500
      4 C6           1.5210    -1.2810     2.1600 c3         1 AMF       0.094700
      5 S1           3.0760    -1.9710     2.8020 ss         1 AMF      -0.386300
      6 C3           1.9420     1.2560    -0.7110 c3         1 AMF       0.155100
      7 O3           1.4330     1.2860    -2.0470 oh         1 AMF      -0.580800
      8 C2           3.4710     1.2430    -0.7520 c3         1 AMF       0.128100
      9 O2           3.9370     2.3820    -1.4780 oh         1 AMF      -0.581800
     10 C1           4.0260     1.2860     0.6750 c3         1 AMF       0.392300
     11 O1           5.4430     1.1080     0.6500 oh         1 AMF      -0.537800
     12 N1           3.3900     0.1760     1.4380 nh         1 AMF      -0.470600
     13 C7           4.1270    -0.7160     2.1440 c2         1 AMF       0.545100
     14 N2           5.4200    -0.6620     2.3080 n2         1 AMF      -0.560900
     15 C8           6.1040    -1.6960     3.0870 c3         1 AMF       0.160800
     16 C9           7.0420    -2.4870     2.1740 c3         1 AMF      -0.030400
     17 C10          7.7560    -3.5680     2.9880 c3         1 AMF      -0.029400
     18 C11          8.6940    -4.3580     2.0740 c3         1 AMF      -0.028400
     19 C12          9.4080    -5.4390     2.8880 c3         1 AMF      -0.029400
     20 C13         10.3460    -6.2300     1.9740 c3         1 AMF      -0.030400
     21 C14         11.0600    -7.3100     2.7870 c3         1 AMF      -0.028400
     22 C15         11.9990    -8.1010     1.8740 c3         1 AMF       0.005900
     23 H4          -0.3140    -0.6490    -0.6070 ho         1 AMF       0.402000
     24 HA           1.7970    -0.8810    -0.5130 h1         1 AMF       0.025700
     25 H5           1.4990     0.8410     1.9620 h1         1 AMF       0.043700
     26 H3           1.6060     2.1340    -0.1730 h1         1 AMF       0.021700
     27 H61C         1.1650    -1.9640     1.3990 h1         1 AMF       0.068700
     28 H62C         0.9320    -0.9810     3.0180 h1         1 AMF       0.068700
     29 HB           0.9290     2.0730    -2.1730 ho         1 AMF       0.402000
     30 H2           3.8090     0.3360    -1.2400 h1         1 AMF       0.031700
     31 HC           4.4610     2.0970    -2.2080 ho         1 AMF       0.404000
     32 H81C         5.3700    -2.3660     3.5190 h1         1 AMF       0.016700
     33 H82C         6.6780    -1.2310     3.8790 h1         1 AMF       0.016700
     34 H91C         7.7750    -1.8170     1.7420 hc         1 AMF       0.022200
     35 H92C         6.4680    -2.9520     1.3820 hc         1 AMF       0.022200
     36 H101         7.0230    -4.2380     3.4190 hc         1 AMF       0.014200
     37 H102         8.3310    -3.1030     3.7790 hc         1 AMF       0.014200
     38 H111         9.4270    -3.6880     1.6420 hc         1 AMF       0.015200
     39 H112         8.1190    -4.8230     1.2820 hc         1 AMF       0.015200
     40 H121         8.6750    -6.1100     3.3190 hc         1 AMF       0.014700
     41 H122         9.9830    -4.9740     3.6790 hc         1 AMF       0.014700
     42 H131        11.0790    -5.5590     1.5420 hc         1 AMF       0.014700
     43 H132         9.7710    -6.6950     1.1820 hc         1 AMF       0.014700
     44 H141        10.3270    -7.9810     3.2190 hc         1 AMF       0.011700
     45 H142        11.6350    -6.8450     3.5800 hc         1 AMF       0.011700
     46 H151        12.5040    -8.8660     2.4510 hc         1 AMF       0.000033
     47 H152        12.7320    -7.4310     1.4420 hc         1 AMF       0.000033
     48 H153        11.4250    -8.5670     1.0820 hc         1 AMF       0.000033
     49 H154         5.8670     1.9440     0.7480 ho         1 AMF       0.398000
     50 H155         3.7780     2.2350     1.1350 h2         1 AMF       0.010700
@<TRIPOS>BOND
     1     1     2 1   
     2     1    23 1   
     3     2     3 1   
     4     2     6 1   
     5     2    24 1   
     6     3     4 1   
     7     3    12 1   
     8     3    25 1   
     9     4     5 1   
    10     4    27 1   
    11     4    28 1   
    12     5    13 1   
    13     6     7 1   
    14     6     8 1   
    15     6    26 1   
    16     7    29 1   
    17     8     9 1   
    18     8    10 1   
    19     8    30 1   
    20     9    31 1   
    21    10    11 1   
    22    10    12 1   
    23    10    50 1   
    24    11    49 1   
    25    12    13 1   
    26    13    14 2   
    27    14    15 1   
    28    15    16 1   
    29    15    32 1   
    30    15    33 1   
    31    16    17 1   
    32    16    34 1   
    33    16    35 1   
    34    17    18 1   
    35    17    36 1   
    36    17    37 1   
    37    18    19 1   
    38    18    38 1   
    39    18    39 1   
    40    19    20 1   
    41    19    40 1   
    42    19    41 1   
    43    20    21 1   
    44    20    42 1   
    45    20    43 1   
    46    21    22 1   
    47    21    44 1   
    48    21    45 1   
    49    22    46 1   
    50    22    47 1   
    51    22    48 1   
@<TRIPOS>SUBSTRUCTURE
     1 AMF         1 TEMP              0 ****  ****    0 ROOT
