@<TRIPOS>MOLECULE
molecule
   27    27     1     0     0
SMALL
bcc


@<TRIPOS>ATOM
      1 C1           0.0000     0.0000     0.0000 c3         1 AMG       0.299900
      2 C2           1.5300     0.0000     0.0000 c3         1 AMG       0.128100
      3 C3           2.0300     0.0000     1.4470 c3         1 AMG       0.125100
      4 C4           1.3780     1.1700     2.1910 c3         1 AMG       0.106100
      5 C5          -0.1400     1.0810     2.0260 c3         1 AMG       0.129100
      6 C6          -0.8010     2.2290     2.7930 c3         1 AMG       0.146400
      7 O1          -0.4750    -1.1530     0.6970 os         1 AMG      -0.422600
      8 O2           2.0090    -1.1660    -0.6710 oh         1 AMG      -0.591800
      9 O3           3.4510     0.1510     1.4660 oh         1 AMG      -0.598800
     10 O4           1.8470     2.4050     1.6480 oh         1 AMG      -0.584800
     11 O5          -0.4820     1.1760     0.6450 os         1 AMG      -0.389600
     12 O6          -2.2200     2.1440     2.6470 oh         1 AMG      -0.603800
     13 H1          -0.3580    -0.0190    -1.0220 h2         1 AMG       0.080700
     14 H2           1.8900     0.8880    -0.5050 h1         1 AMG       0.077700
     15 H3           1.7520    -0.9320     1.9250 h1         1 AMG       0.065700
     16 H4           1.6300     1.1120     3.2430 h1         1 AMG       0.040700
     17 H5          -0.4880     0.1330     2.4170 h1         1 AMG       0.075700
     18 H61         -0.5410     2.1590     3.8420 h1         1 AMG       0.033700
     19 H62         -0.4530     3.1750     2.3970 h1         1 AMG       0.033700
     20 H71         -2.2920    -1.1670     1.6680 h1         1 AMG       0.042033
     21 H72         -2.2170    -0.1660     0.2110 h1         1 AMG       0.042033
     22 H73         -2.2780    -1.9280     0.0710 h1         1 AMG       0.042033
     23 HO2          2.4880    -0.9110    -1.4420 ho         1 AMG       0.406000
     24 HO3          3.8330    -0.5430     1.9780 ho         1 AMG       0.405000
     25 HO4          2.4450     2.8090     2.2550 ho         1 AMG       0.405000
     26 HO6         -2.6280     2.8510     3.1200 ho         1 AMG       0.403000
     27 C7          -1.9020    -1.1000     0.6590 c3         1 AMG       0.103700
@<TRIPOS>BOND
     1     1     2 1
     2     1     7 1
     3     1    11 1
     4     1    13 1
     5     2     3 1
     6     2     8 1
     7     2    14 1
     8     3     4 1
     9     3     9 1
    10     3    15 1
    11     4     5 1
    12     4    10 1
    13     4    16 1
    14     5     6 1
    15     5    11 1
    16     5    17 1
    17     6    12 1
    18     6    18 1
    19     6    19 1
    20    27     7 1
    21    27    20 1
    22    27    21 1
    23    27    22 1
    24     8    23 1
    25     9    24 1
    26    10    25 1
    27    12    26 1
@<TRIPOS>SUBSTRUCTURE
     1 AMG         1 TEMP              0 ****  ****    0 ROOT
