@<TRIPOS>MOLECULE
AMG
   27    25     1     0     0
SMALL
bcc


@<TRIPOS>ATOM
      1 C1          0.5540   -0.3310    0.3230 c2        1 AMG     -0.318500
      2 C2          1.9620    0.1130    0.2590 c3        1 AMG      0.056500
      3 C3          2.5330    0.2620    1.6830 c3        1 AMG     -0.040000
      4 C4          1.5960    1.1450    2.5260 c3        1 AMG      0.056500
      5 C5          0.1820    0.7430    2.3380 c2        1 AMG     -0.318500
      6 C6         -1.1700    3.7770    3.2410 c2        1 AMG      0.132000
      7 O1         -1.5300   -2.4340   -1.1010 oh        1 AMG     -0.340000
      8 O2          2.7790   -0.7530   -0.5050 oh        1 AMG     -0.329500
      9 O3          3.7990    0.8980    1.6640 oh        1 AMG     -0.335000
     10 O4          1.7130    2.5190    2.1700 oh        1 AMG     -0.329500
     11 O5         -0.2520    0.0460    1.3010 os        1 AMG      0.128000
     12 O6         -1.8880    2.9010    3.7210 o         1 AMG     -0.303000
     13 H1         -1.8850   -2.9990   -1.7970 ho        1 AMG      0.200000
     14 H2          0.0690   -0.9830   -0.4140 h4        1 AMG      0.215000
     15 H3          2.0390    1.1120   -0.2700 h1        1 AMG      0.123000
     16 H4          2.6390   -0.7500    2.1630 h1        1 AMG      0.095000
     17 H5          1.8700    1.0330    3.6160 h1        1 AMG      0.123000
     18 H61        -0.6300    1.0700    3.0020 h4        1 AMG      0.215000
     19 H62        -0.2050    3.5410    2.7400 h4        1 AMG      0.086000
     20 H71        -2.1650   -1.3520    0.4780 h1        1 AMG      0.073000
     21 H72        -3.3770   -1.4740   -0.8950 h1        1 AMG      0.073000
     22 H73        -3.0940   -2.9120    0.2010 h1        1 AMG      0.073000
     23 HO2         2.5830   -1.6580   -0.2340 ho        1 AMG      0.216000
     24 HO3         4.2780    0.5440    0.9010 ho        1 AMG      0.226000
     25 HO4         2.6590    2.7240    2.1490 ho        1 AMG      0.216000
     26 HO6        -1.4510    4.8510    3.2860 h4        1 AMG      0.086000
     27 C7         -2.6160   -2.0300   -0.2930 c3        1 AMG     -0.078000
@<TRIPOS>BOND
     1    1    2 1   
     2    1   11 1   
     3    1   14 1   
     4    2    3 1   
     5    2    8 1   
     6    2   15 1   
     7    3    4 1   
     8    3    9 1   
     9    3   16 1   
    10    4    5 1   
    11    4   10 1   
    12    4   17 1   
    13    5   11 1   
    14    5   18 1   
    15    6   12 1   
    16    6   19 1   
    17    6   26 1   
    18    7   13 1   
    19    7   27 1   
    20    8   23 1   
    21    9   24 1   
    22   10   25 1   
    23   20   27 1   
    24   21   27 1   
    25   22   27 1   
@<TRIPOS>SUBSTRUCTURE
     1 AMG         1 TEMP              0 ****  ****    0 ROOT
