@<TRIPOS>MOLECULE
molecule
   26    26     1     0     0
SMALL
bcc


@<TRIPOS>ATOM
      1 C1           0.0000     0.0000     0.0000 c3         1 AMH      -0.177700
      2 C2           1.5300     0.0000     0.0000 c3         1 AMH      -0.053900
      3 C3           2.0400     0.0000     1.4420 c3         1 AMH      -0.085400
      4 C4           1.5300     1.2490     2.1620 c3         1 AMH      -0.098700
      5 C5           0.0000     1.2500     2.1620 c3         1 AMH      -0.085400
      6 C6          -0.5090     1.2480     0.7210 c3         1 AMH      -0.053900
      7 C7           2.0400     1.2500     3.6050 c3         1 AMH       0.086800
      8 C8          -0.5020    -0.0010    -1.4210 c          1 AMH       0.891600
      9 N            1.5510     2.4490     4.2970 nz         1 AMH      -0.808600
     10 O1          -1.8210    -0.0010    -1.6660 o          1 AMH      -0.827800
     11 O2           0.2830    -0.0010    -2.3390 o          1 AMH      -0.827800
     12 H1          -0.3590    -0.8830     0.5150 hc         1 AMH       0.045700
     13 H21          1.8900     0.8860    -0.5090 hc         1 AMH       0.065450
     14 H22          1.8890    -0.8860    -0.5090 hc         1 AMH       0.065450
     15 H31          3.1230     0.0030     1.4400 hc         1 AMH       0.027950
     16 H32          1.6770    -0.8840     1.9520 hc         1 AMH       0.027950
     17 H4           1.8890     2.1320     1.6470 hc         1 AMH       0.068700
     18 H51         -0.3600     0.3640     2.6720 hc         1 AMH       0.027950
     19 H52         -0.3590     2.1360     2.6700 hc         1 AMH       0.027950
     20 H61         -1.5930     1.2460     0.7220 hc         1 AMH       0.065450
     21 H62         -0.1460     2.1320     0.2100 hc         1 AMH       0.065450
     22 H71          1.6790     0.3660     4.1160 hx         1 AMH       0.100700
     23 H72          3.1230     1.2500     3.6040 hx         1 AMH       0.100700
     24 HN1          2.1400     2.6440     5.0820 hn         1 AMH       0.450133
     25 HN2          1.5660     3.2270     3.6670 hn         1 AMH       0.450133
     26 HN3          0.6150     2.2930     4.6130 hn         1 AMH       0.450133
@<TRIPOS>BOND
     1     1     2 1
     2     1     6 1
     3     1     8 1
     4     1    12 1
     5     2     3 1
     6     2    13 1
     7     2    14 1
     8     3     4 1
     9     3    15 1
    10     3    16 1
    11     4     5 1
    12     4     7 1
    13     4    17 1
    14     5     6 1
    15     5    18 1
    16     5    19 1
    17     6    20 1
    18     6    21 1
    19     7     9 1
    20     7    22 1
    21     7    23 1
    22     8    10 1
    23     8    11 1
    24     9    24 1
    25     9    25 1
    26    26     9 1
@<TRIPOS>SUBSTRUCTURE
     1 AMH         1 TEMP              0 ****  ****    0 ROOT
