@<TRIPOS>MOLECULE
molecule
   31    32     1     0     0
SMALL
bcc


@<TRIPOS>ATOM
      1 C1           0.0000     0.0000     0.0000 c3         1 AMI       0.122100
      2 C2           1.5540     0.0000     0.0000 c3         1 AMI       0.093500
      3 C3           1.9700     0.0000     1.4770 c3         1 AMI       0.128100
      4 C4           0.8370    -0.6970     2.2440 c3         1 AMI       0.152100
      5 C5          -0.3960    -0.6940     1.3330 c3         1 AMI      -0.097700
      6 C6          -1.5330     0.0810     2.0030 c3         1 AMI       0.143400
      7 C7           0.7840    -1.7410    -1.1960 c2         1 AMI       0.809500
      8 C8           1.9160    -3.7950    -1.9350 c3         1 AMI       0.241100
      9 C9          -0.5200    -3.3670    -2.4990 c3         1 AMI       0.241100
     10 N2           1.8580    -1.3050    -0.6110 n2         1 AMI      -0.732900
     11 N7           0.7280    -2.9400    -1.8630 nh         1 AMI      -0.781600
     12 O3           2.1270     1.3400     1.9440 oh         1 AMI      -0.611800
     13 O4           1.2130    -2.0410     2.5520 oh         1 AMI      -0.590800
     14 O6          -1.8890    -0.5590     3.2300 oh         1 AMI      -0.612800
     15 O7          -0.2680    -0.9050    -1.0960 os         1 AMI      -0.448400
     16 H1          -0.4330     0.9850    -0.1300 h1         1 AMI       0.104700
     17 H2           1.9700     0.8310    -0.5560 h1         1 AMI       0.081700
     18 H3           2.8930    -0.5520     1.6010 h1         1 AMI       0.073700
     19 H4           0.6210    -0.1520     3.1550 h1         1 AMI       0.063700
     20 H5          -0.7070    -1.7130     1.1360 hc         1 AMI       0.098700
     21 H61         -2.3930     0.1010     1.3440 h1         1 AMI       0.028200
     22 H62         -1.2090     1.0950     2.2050 h1         1 AMI       0.028200
     23 H81          2.1280    -4.2020    -0.9540 h1         1 AMI       0.042033
     24 H82          2.7620    -3.2100    -2.2740 h1         1 AMI       0.042033
     25 H83          1.7350    -4.6060    -2.6310 h1         1 AMI       0.042033
     26 H91         -0.9360    -2.5440    -3.0670 h1         1 AMI       0.042033
     27 H92         -1.2270    -3.6740    -1.7380 h1         1 AMI       0.042033
     28 H93         -0.3200    -4.1990    -3.1630 h1         1 AMI       0.042033
     29 HO3          3.0400     1.5120     2.1040 ho         1 AMI       0.407000
     30 HO4          1.3420    -2.1260     3.4820 ho         1 AMI       0.403000
     31 HO6         -2.7320    -0.2460     3.5140 ho         1 AMI       0.404000
@<TRIPOS>BOND
     1     1     2 1
     2     1     5 1
     3     1    15 1
     4     1    16 1
     5     2     3 1
     6     2    10 1
     7     2    17 1
     8     3     4 1
     9     3    12 1
    10     3    18 1
    11     4     5 1
    12     4    13 1
    13     4    19 1
    14     5     6 1
    15     5    20 1
    16     6    14 1
    17     6    21 1
    18     6    22 1
    19     7    10 2
    20     7    11 1
    21     7    15 1
    22     8    11 1
    23     8    23 1
    24     8    24 1
    25     8    25 1
    26     9    11 1
    27     9    26 1
    28     9    27 1
    29     9    28 1
    30    12    29 1
    31    13    30 1
    32    14    31 1
@<TRIPOS>SUBSTRUCTURE
     1 AMI         1 TEMP              0 ****  ****    0 ROOT
