@<TRIPOS>MOLECULE
AMJ
   36    36     1     0     0
SMALL
bcc


@<TRIPOS>ATOM
      1 C            0.0000     0.0000     0.0000 c          1 AMJ       0.574100
      2 N            1.9970     1.1960    -0.6890 ns         1 AMJ      -0.168900
      3 O           -0.6060     0.9100    -0.5260 o          1 AMJ      -0.650100
      4 CA           1.5070     0.0000     0.0000 c3         1 AMJ      -0.054300
      5 CB           2.0160     0.0000     1.4440 c3         1 AMJ       0.191400
      6 CAA          1.8580     1.1960     3.5140 c3         1 AMJ       0.256700
      7 CAB          3.7210     2.4240    -1.9670 c3         1 AMJ      -0.065100
      8 OAC          3.9130     0.2020    -1.1970 o          1 AMJ      -0.668100
      9 CAE         -3.5690    -4.4830     2.6180 ca         1 AMJ      -0.091000
     10 CAF         -3.3310    -3.3190     3.3240 ca         1 AMJ      -0.101500
     11 CAG         -3.3410    -4.5220     1.2540 ca         1 AMJ      -0.101500
     12 CAH         -2.8690    -2.1940     2.6700 ca         1 AMJ      -0.083500
     13 CAI         -2.8790    -3.3960     0.5990 ca         1 AMJ      -0.083500
     14 CAJ         -2.1390    -1.0040     0.5920 c3         1 AMJ       0.112300
     15 NAL         -0.6750    -1.0080     0.5880 ns         1 AMJ      -0.184900
     16 OAN          1.4460     1.1040     2.1500 os         1 AMJ      -0.417600
     17 CAO          3.2190     1.1940    -1.2570 c          1 AMJ       0.571100
     18 CAQ         -2.6430    -2.2320     1.3060 ca         1 AMJ      -0.129300
     19 HN           1.4140     2.0070    -0.7590 hn         1 AMJ       0.203500
     20 HA           1.8690    -0.8850    -0.5100 h1         1 AMJ       0.069700
     21 HB           3.0960     0.0880     1.4460 h1         1 AMJ       0.006200
     22 HBA          1.7280    -0.9250     1.9280 h1         1 AMJ       0.006200
     23 HAA          1.5920     0.2840     4.0350 h1         1 AMJ      -0.011967
     24 HAAA         1.3640     2.0380     3.9840 h1         1 AMJ      -0.011967
     25 HAAB         2.9320     1.3370     3.5590 h1         1 AMJ      -0.011967
     26 HAB          3.7640     3.2520    -1.2690 hc         1 AMJ       0.023033
     27 HABA         3.0500     2.6720    -2.7800 hc         1 AMJ       0.023033
     28 HABB         4.7120     2.2340    -2.3610 hc         1 AMJ       0.023033
     29 HAF         -3.5090    -3.2890     4.3930 ha         1 AMJ       0.105500
     30 HAG         -3.5260    -5.4340     0.7000 ha         1 AMJ       0.105500
     31 HAH         -2.6840    -1.2820     3.2240 ha         1 AMJ       0.108500
     32 HAI         -2.7010    -3.4260    -0.4690 ha         1 AMJ       0.108500
     33 HAJ         -2.5030    -1.0050    -0.4280 h1         1 AMJ       0.031200
     34 HAJA        -2.4970    -0.1170     1.1020 h1         1 AMJ       0.031200
     35 HNAL        -0.1750    -1.7800     0.9840 hn         1 AMJ       0.178500
     36 HAE         -3.9310    -5.3650     3.1320 ha         1 AMJ       0.104000
@<TRIPOS>BOND
     1     1     3 2   
     2     1     4 1   
     3     1    15 1   
     4     2     4 1   
     5     2    17 1   
     6     2    19 1   
     7     4     5 1   
     8     4    20 1   
     9     5    16 1   
    10     5    21 1   
    11     5    22 1   
    12     6    16 1   
    13     6    23 1   
    14     6    24 1   
    15     6    25 1   
    16     7    17 1   
    17     7    26 1   
    18     7    27 1   
    19     7    28 1   
    20     8    17 2   
    21     9    10 ar  
    22     9    11 ar  
    23     9    36 1   
    24    10    12 ar  
    25    10    29 1   
    26    11    13 ar  
    27    11    30 1   
    28    12    18 ar  
    29    12    31 1   
    30    13    18 ar  
    31    13    32 1   
    32    14    15 1   
    33    14    18 1   
    34    14    33 1   
    35    14    34 1   
    36    15    35 1   
@<TRIPOS>SUBSTRUCTURE
     1 AMJ         1 TEMP              0 ****  ****    0 ROOT
