@<TRIPOS>MOLECULE
molecule
   20    19     1     0     0
SMALL
bcc


@<TRIPOS>ATOM
      1 C1           0.0000     0.0000     0.0000 c3         1 AML      -0.091100
      2 C2           1.5290     0.0000     0.0000 c3         1 AML      -0.081400
      3 C3           2.0400     0.0000     1.4420 c3         1 AML      -0.075400
      4 C4           3.5690     0.0000     1.4420 c3         1 AML      -0.112400
      5 C5           4.0800    -0.0010     2.8830 c3         1 AML       0.090800
      6 N1           5.5490     0.0010     2.8830 nz         1 AML      -0.811600
      7 HC11        -0.3610     0.8850     0.5110 hc         1 AML       0.046700
      8 HC12        -0.3610    -0.0000    -1.0210 hc         1 AML       0.046700
      9 HC13        -0.3610    -0.8840     0.5110 hc         1 AML       0.046700
     10 HC21         1.8900    -0.8840    -0.5110 hc         1 AML       0.048700
     11 HC22         1.8900     0.8840    -0.5110 hc         1 AML       0.048700
     12 HC31         1.6790     0.8840     1.9530 hc         1 AML       0.057700
     13 HC32         1.6790    -0.8840     1.9530 hc         1 AML       0.057700
     14 HC41         3.9290    -0.8840     0.9300 hc         1 AML       0.065700
     15 HC42         3.9290     0.8850     0.9310 hc         1 AML       0.065700
     16 HC51         3.7200    -0.8860     3.3930 hx         1 AML       0.112700
     17 HC52         3.7180     0.8820     3.3950 hx         1 AML       0.112700
     18 HN11         5.8840    -0.8160     2.4100 hn         1 AML       0.457133
     19 HN12         5.8830    -0.0010     3.8270 hn         1 AML       0.457133
     20 H13          5.8820     0.8190     2.4130 hn         1 AML       0.457133
@<TRIPOS>BOND
     1     1     2 1
     2     1     7 1
     3     1     8 1
     4     1     9 1
     5     2     3 1
     6     2    10 1
     7     2    11 1
     8     3     4 1
     9     3    12 1
    10     3    13 1
    11     4     5 1
    12     4    14 1
    13     4    15 1
    14     5     6 1
    15     5    16 1
    16     5    17 1
    17     6    18 1
    18     6    19 1
    19    20     6 1
@<TRIPOS>SUBSTRUCTURE
     1 AML         1 TEMP              0 ****  ****    0 ROOT
