@<TRIPOS>MOLECULE
AMM
   33    32     1     0     0
SMALL
bcc


@<TRIPOS>ATOM
      1 N            0.0000     0.0000     0.0000 nz         1 AMM       0.158400
      2 CA           1.4560     0.0000     0.0000 c3         1 AMM      -0.208200
      3 Si           2.0600     0.0000     1.7870 Si         1 AMM       0.673400
      4 O1           3.7360     0.0010     1.8080 oh         1 AMM      -0.671200
      5 O2           1.5220    -1.3770     2.5770 oh         1 AMM      -0.671200
      6 CH2          1.4100     1.5340     2.6430 c3         1 AMM      -0.044400
      7 CE           1.7350     2.8920     1.9870 c3         1 AMM      -0.136700
      8 C            3.2400     3.0730     2.0350 c          1 AMM       0.652900
      9 O            3.8780     3.1370     3.0810 o          1 AMM      -0.529100
     10 CB           1.0610     4.0710     2.7160 c3         1 AMM      -0.011400
     11 CG           1.3160     5.4590     2.0870 c3         1 AMM      -0.053700
     12 CD1          0.8810     5.5260     0.6230 c3         1 AMM      -0.004600
     13 CD2          2.8030     5.8080     2.1980 c3         1 AMM      -0.004600
     14 HN1         -0.3340     0.9370    -0.1130 hn         1 AMM       0.205467
     15 HN2         -0.3340    -0.5660    -0.7550 hn         1 AMM       0.205467
     16 HA1          1.8200     0.8850    -0.5070 hx         1 AMM       0.094700
     17 HA2          1.8200    -0.8850    -0.5070 hx         1 AMM       0.094700
     18 HO1          4.0560    -0.8140     1.4580 ho         1 AMM       0.425000
     19 HO2          2.2480    -1.7950     3.0100 ho         1 AMM       0.425000
     20 HH21         0.3320     1.4460     2.7090 hc         1 AMM       0.046200
     21 HH22         1.8080     1.5470     3.6500 hc         1 AMM       0.046200
     22 HE           1.4090     2.8770     0.9540 hc         1 AMM       0.005700
     23 H            3.7740     3.1480     1.0950 h4         1 AMM      -0.038800
     24 HB1          1.4190     4.0900     3.7380 hc         1 AMM       0.023700
     25 HB2         -0.0080     3.8960     2.7310 hc         1 AMM       0.023700
     26 HG           0.7500     6.1950     2.6450 hc         1 AMM       0.039700
     27 HD11         0.6950     6.5570     0.3490 hc         1 AMM       0.008200
     28 HD12         1.6650     5.1200    -0.0050 hc         1 AMM       0.008200
     29 HD13        -0.0250     4.9470     0.4890 hc         1 AMM       0.008200
     30 HD21         3.1760     5.4970     3.1660 hc         1 AMM       0.008200
     31 HD22         2.9310     6.8790     2.0890 hc         1 AMM       0.008200
     32 HD23         3.3530     5.2980     1.4170 hc         1 AMM       0.008200
     33 HN3         -0.3340    -0.3610     0.8720 hn         1 AMM       0.205467
@<TRIPOS>BOND
     1     1     2 1   
     2     1    14 1   
     3     1    15 1   
     4     1    33 1   
     5     2     3 1   
     6     2    16 1   
     7     2    17 1   
     8     3     4 1   
     9     3     5 1   
    10     3     6 1   
    11     4    18 1   
    12     5    19 1   
    13     6     7 1   
    14     6    20 1   
    15     6    21 1   
    16     7     8 1   
    17     7    10 1   
    18     7    22 1   
    19     8     9 2   
    20     8    23 1   
    21    10    11 1   
    22    10    24 1   
    23    10    25 1   
    24    11    12 1   
    25    11    13 1   
    26    11    26 1   
    27    12    27 1   
    28    12    28 1   
    29    12    29 1   
    30    13    30 1   
    31    13    31 1   
    32    13    32 1   
@<TRIPOS>SUBSTRUCTURE
     1 AMM         1 TEMP              0 ****  ****    0 ROOT
