@<TRIPOS>MOLECULE
AMN
   44    45     1     0     0
SMALL
bcc


@<TRIPOS>ATOM
      1 C1           1.5060     0.0000     0.0000 c2         1 AMN       0.346000
      2 C2           0.0000     0.0000     0.0000 c3         1 AMN       0.155000
      3 C3          -0.5090     0.0000     1.4420 c3         1 AMN      -0.145000
      4 C4           0.0330     1.2390     2.1630 c3         1 AMN       0.061000
      5 C5          -0.3300     2.4810     1.3440 c3         1 AMN      -0.142000
      6 C6           0.1650     2.2940    -0.0910 c3         1 AMN       0.013000
      7 C7          -0.1640     3.5430    -0.9100 c3         1 AMN       0.081000
      8 C8           0.3290     3.3560    -2.3460 DU         1 AMN      -0.014000
      9 C9           0.0010     4.6060    -3.1650 c3         1 AMN      -0.615000
     10 C11          0.3170     5.5870     3.4860 c3         1 AMN      -0.136000
     11 N5           0.3070     3.6610     1.9340 ns         1 AMN      -0.012000
     12 N9           0.4750     4.4280    -4.5430 nz         1 AMN       0.904000
     13 O1A          2.1770    -0.6930     0.9340 o          1 AMN      -0.603000
     14 O1B          2.1100     0.6230    -0.8400 o          1 AMN      -0.603000
     15 O2          -0.4750    -1.1690    -0.6710 os         1 AMN      -0.228000
     16 O4          -0.5510     1.3310     3.4640 oh         1 AMN      -0.307000
     17 O6          -0.4720     1.1620    -0.6790 os         1 AMN      -0.261000
     18 O7          -1.5780     3.7490    -0.9160 oh         1 AMN      -0.269000
     19 O8           1.7440     3.1510    -2.3390 oh         1 AMN      -0.218000
     20 O10         -1.4480     4.0420     3.2360 o          1 AMN      -0.377000
     21 H31         -0.1630    -0.8930     1.9480 hc         1 AMN       0.083500
     22 H32         -1.5920     0.0270     1.4430 hc         1 AMN       0.083500
     23 H4           1.1110     1.1640     2.2480 h1         1 AMN       0.086000
     24 H5          -1.4050     2.6080     1.3400 h1         1 AMN       0.122000
     25 H6           1.1180     2.0460     0.3600 h1         1 AMN       0.164000
     26 H7           0.3690     4.3520    -0.4250 h1         1 AMN       0.056000
     27 H8          -0.2130     2.4990    -2.7260 ha         1 AMN       0.139000
     28 H91          0.4090     5.0720    -2.2760 hx         1 AMN       0.249000
     29 H92         -0.5470     3.6760    -3.2480 DU         1 AMN       0.238000
     30 H111         1.3570     5.3680     3.6980 hc         1 AMN       0.057000
     31 H112         0.2570     6.4170     2.7930 hc         1 AMN       0.057000
     32 H113        -0.1910     5.8470     4.4070 hc         1 AMN       0.057000
     33 H121        -0.4050    -1.9220    -2.5880 h1         1 AMN       0.032000
     34 H122        -0.3780    -0.1570    -2.4640 h1         1 AMN       0.032000
     35 H123         1.0610    -1.0960    -2.0430 h1         1 AMN       0.032000
     36 HN5          1.2330     3.9210     1.6570 hn         1 AMN       0.078000
     37 HN91         0.6010     3.4520    -4.7290 hn         1 AMN       0.009000
     38 HN92        -0.2000     4.8040    -5.1800 hn         1 AMN       0.009000
     39 HO4         -0.1130     0.7340     4.0480 ho         1 AMN       0.191000
     40 HO7         -1.7610     4.6730    -0.9660 ho         1 AMN       0.184000
     41 HO8          2.1790     3.9530    -2.5770 ho         1 AMN       0.161000
     42 C10         -0.3380     4.3730     2.8790 c2         1 AMN       0.209000
     43 C12         -0.0220    -1.0810    -2.0230 c3         1 AMN       0.030000
     44 H93          1.3470     4.9050    -4.6610 hn         1 AMN       0.009000
@<TRIPOS>BOND
     1     1     2 1   
     2     1    13 1   
     3     1    14 1   
     4     2     3 1   
     5     2    15 1   
     6     2    17 1   
     7     3     4 1   
     8     3    21 1   
     9     3    22 1   
    10     4     5 1   
    11     4    16 1   
    12     4    23 1   
    13     5     6 1   
    14     5    11 1   
    15     5    24 1   
    16     6     7 1   
    17     6    17 1   
    18     6    25 1   
    19     7     8 1   
    20     7    18 1   
    21     7    26 1   
    22     8     9 1   
    23     8    19 1   
    24     8    27 1   
    25     8    29 1   
    26     9    12 1   
    27     9    28 1   
    28     9    29 1   
    29    10    30 1   
    30    10    31 1   
    31    10    32 1   
    32    10    42 1   
    33    11    36 1   
    34    11    42 1   
    35    12    37 1   
    36    12    38 1   
    37    12    44 1   
    38    15    43 1   
    39    16    39 1   
    40    18    40 1   
    41    19    41 1   
    42    20    42 1   
    43    33    43 1   
    44    34    43 1   
    45    35    43 1   
@<TRIPOS>SUBSTRUCTURE
     1 AMN         1 TEMP              0 ****  ****    0 ROOT
