@<TRIPOS>MOLECULE
molecule
   44    44     1     0     0
SMALL
bcc


@<TRIPOS>ATOM
      1 C1           1.5060     0.0000     0.0000 c          1 AMN       0.843600
      2 C2           0.0000     0.0000     0.0000 c3         1 AMN       0.217600
      3 C3          -0.5090     0.0000     1.4420 c3         1 AMN      -0.103400
      4 C4           0.0330     1.2390     2.1630 c3         1 AMN       0.134100
      5 C5          -0.3300     2.4810     1.3440 c3         1 AMN       0.051700
      6 C6           0.1650     2.2940    -0.0910 c3         1 AMN       0.130100
      7 C7          -0.1640     3.5430    -0.9100 c3         1 AMN       0.159100
      8 C8           0.3290     3.3560    -2.3460 c3         1 AMN       0.046100
      9 C9           0.0010     4.6060    -3.1650 c3         1 AMN      -0.177200
     10 C11          0.3170     5.5870     3.4860 c3         1 AMN      -0.173100
     11 N5           0.3070     3.6610     1.9340 ns         1 AMN      -0.593900
     12 N9           0.4750     4.4280    -4.5430 nz         1 AMN      -0.786600
     13 O1A          2.1770    -0.6930     0.9340 o          1 AMN      -0.819300
     14 O1B          2.1100     0.6230    -0.8400 o          1 AMN      -0.819300
     15 O2          -0.4750    -1.1690    -0.6710 os         1 AMN      -0.375600
     16 O4          -0.5510     1.3310     3.4640 oh         1 AMN      -0.596800
     17 O6          -0.4720     1.1620    -0.6790 os         1 AMN      -0.424600
     18 O7          -1.5780     3.7490    -0.9160 oh         1 AMN      -0.561800
     19 O8           1.7440     3.1510    -2.3390 oh         1 AMN      -0.517800
     20 O10         -1.4480     4.0420     3.2360 o          1 AMN      -0.577100
     21 H31         -0.1630    -0.8930     1.9480 hc         1 AMN       0.072700
     22 H32         -1.5920     0.0270     1.4430 hc         1 AMN       0.072700
     23 H4           1.1110     1.1640     2.2480 h1         1 AMN       0.072700
     24 H5          -1.4050     2.6080     1.3400 h1         1 AMN       0.102700
     25 H6           1.1180     2.0460     0.3600 h1         1 AMN       0.138700
     26 H7           0.3690     4.3520    -0.4250 h1         1 AMN       0.052700
     27 H8          -0.2130     2.4990    -2.7260 h1         1 AMN       0.132700
     28 H91          0.4090     5.0720    -2.2760 hx         1 AMN       0.220200
     29 H92         -0.5470     3.6760    -3.2480 hx         1 AMN       0.220200
     30 H111         1.3570     5.3680     3.6980 hc         1 AMN       0.055033
     31 H112         0.2570     6.4170     2.7930 hc         1 AMN       0.055033
     32 H113        -0.1910     5.8470     4.4070 hc         1 AMN       0.055033
     33 H121        -0.4050    -1.9220    -2.5880 h1         1 AMN       0.030033
     34 H122        -0.3780    -0.1570    -2.4640 h1         1 AMN       0.030033
     35 H123         1.0610    -1.0960    -2.0430 h1         1 AMN       0.030033
     36 HN5          1.2330     3.9210     1.6570 hn         1 AMN       0.301500
     37 HN91         0.6010     3.4520    -4.7290 hn         1 AMN       0.449800
     38 HN92        -0.2000     4.8040    -5.1800 hn         1 AMN       0.449800
     39 HO4         -0.1130     0.7340     4.0480 ho         1 AMN       0.404000
     40 HO7         -1.7610     4.6730    -0.9660 ho         1 AMN       0.399000
     41 HO8          2.1790     3.9530    -2.5770 ho         1 AMN       0.378000
     42 C10         -0.3380     4.3730     2.8790 c          1 AMN       0.652100
     43 C12         -0.0220    -1.0810    -2.0230 c3         1 AMN       0.117700
     44 H93          1.3470     4.9050    -4.6610 hn         1 AMN       0.449800
@<TRIPOS>BOND
     1     1     2 1
     2     1    13 1
     3     1    14 1
     4     2     3 1
     5     2    15 1
     6     2    17 1
     7     3     4 1
     8     3    21 1
     9     3    22 1
    10     4     5 1
    11     4    16 1
    12     4    23 1
    13     5     6 1
    14     5    11 1
    15     5    24 1
    16     6     7 1
    17     6    17 1
    18     6    25 1
    19     7     8 1
    20     7    18 1
    21     7    26 1
    22     8     9 1
    23     8    19 1
    24     8    27 1
    25     9    12 1
    26     9    28 1
    27     9    29 1
    28    42    10 1
    29    42    11 1
    30    42    20 2
    31    10    30 1
    32    10    31 1
    33    10    32 1
    34    43    15 1
    35    43    33 1
    36    43    34 1
    37    43    35 1
    38    11    36 1
    39    12    37 1
    40    12    38 1
    41    16    39 1
    42    18    40 1
    43    19    41 1
    44    44    12 1
@<TRIPOS>SUBSTRUCTURE
     1 AMN         1 TEMP              0 ****  ****    0 ROOT
