@<TRIPOS>MOLECULE
molecule
   49    51     1     0     0
SMALL
bcc


@<TRIPOS>ATOM
      1 P            0.0000     0.0000     0.0000 p5         1 AMO       1.287800
      2 O1P          1.6100     0.0000     0.0000 o          1 AMO      -0.784000
      3 O2P         -0.4930     0.0000     1.3950 o          1 AMO      -0.784000
      4 O3P         -0.5370    -1.3150    -0.7580 os         1 AMO      -0.520500
      5 O5'         -0.5370     1.3140    -0.7580 os         1 AMO      -0.532200
      6 C5'         -0.0300     2.4410    -0.0410 c3         1 AMO       0.158400
      7 C4'         -0.5060     3.7300    -0.7130 c3         1 AMO       0.124100
      8 O4'         -1.9410     3.7960    -0.6820 os         1 AMO      -0.390600
      9 C1'         -2.2960     5.1880    -0.5360 c3         1 AMO       0.253800
     10 N9          -3.6510     5.3220     0.0010 na         1 AMO      -0.245000
     11 C4          -4.5120     6.3680    -0.2180 ca         1 AMO       0.475800
     12 N3          -4.4580     7.4980    -0.9160 nb         1 AMO      -0.778000
     13 C2          -5.4830     8.3230    -0.9370 ca         1 AMO       0.727900
     14 N1          -6.6040     8.0780    -0.2830 nb         1 AMO      -0.846000
     15 C6          -6.7530     6.9720     0.4360 ca         1 AMO       0.782200
     16 N6          -7.9310     6.7240     1.1190 nv         1 AMO      -0.991500
     17 C5          -5.6860     6.0590     0.4890 ca         1 AMO      -0.209200
     18 N7          -5.4810     4.8660     1.1000 nc         1 AMO      -0.603100
     19 C8          -4.2880     4.4320     0.8140 cd         1 AMO       0.445700
     20 C2'         -1.2500     5.7240     0.4730 c3         1 AMO       0.089100
     21 C3'          0.0290     4.9520     0.0570 c3         1 AMO       0.086100
     22 O3'          0.8500     5.7630    -0.7850 oh         1 AMO      -0.578800
     23 N            0.2530    -4.8570    -0.8420 nz         1 AMO      -0.791600
     24 CA          -0.7130    -3.7640    -1.0110 c3         1 AMO       0.064500
     25 CB          -2.0620    -4.1810    -0.4190 c3         1 AMO      -0.207400
     26 CG          -2.5630    -5.4110    -1.1290 c          1 AMO       0.878600
     27 OD1         -3.7370    -5.9600    -0.7740 o          1 AMO      -0.831300
     28 OD2         -1.9110    -5.9050    -2.0180 o          1 AMO      -0.831300
     29 C           -0.2130    -2.5340    -0.3010 c          1 AMO       0.682100
     30 O            0.4820    -2.6450     0.6810 o          1 AMO      -0.516000
     31 O2'         -1.0670     7.1320     0.3190 oh         1 AMO      -0.566800
     32 H5'1        -0.3910     2.4120     0.9800 h1         1 AMO       0.064700
     33 H5'2         1.0530     2.4120    -0.0420 h1         1 AMO       0.064700
     34 H4'         -0.1610     3.7640    -1.7400 h1         1 AMO       0.081700
     35 H1'         -2.2030     5.7020    -1.4850 h2         1 AMO       0.109700
     36 H2          -5.4040     9.2380    -1.5110 h5         1 AMO       0.054100
     37 H61         -8.0310     5.8850     1.6560 hn         1 AMO       0.446300
     38 H62         -8.6830     7.3830     1.0750 hn         1 AMO       0.446300
     39 H8          -3.8640     3.5010     1.1690 h5         1 AMO       0.102800
     40 H2'2        -1.5340     5.4740     1.4880 h1         1 AMO       0.058700
     41 H3'          0.5770     4.6320     0.9350 h1         1 AMO       0.056700
     42 HO'3         1.7220     5.8040    -0.4270 ho         1 AMO       0.402000
     43 HA          -0.8330    -3.5480    -2.0660 hx         1 AMO       0.130700
     44 HB1         -1.9420    -4.3970     0.6360 hc         1 AMO       0.087200
     45 HB2         -2.7750    -3.3760    -0.5440 hc         1 AMO       0.087200
     46 H2'1        -0.8840     7.5190     1.1590 ho         1 AMO       0.399000
     47 HN2          0.0390    -5.3660    -0.0070 hn         1 AMO       0.452800
     48 H21          0.2030    -5.4720    -1.6300 hn         1 AMO       0.452800
     49 H            1.1770    -4.4780    -0.7730 hn         1 AMO       0.452800
@<TRIPOS>BOND
     1     1     2 1
     2     1     3 1
     3     1     4 1
     4     1     5 1
     5     4    29 1
     6     5     6 1
     7     6     7 1
     8     6    32 1
     9     6    33 1
    10     7     8 1
    11     7    21 1
    12     7    34 1
    13     8     9 1
    14     9    10 1
    15     9    20 1
    16     9    35 1
    17    10    11 1
    18    10    19 1
    19    11    12 ar
    20    11    17 ar
    21    12    13 ar
    22    13    14 ar
    23    13    36 1
    24    14    15 ar
    25    15    16 1
    26    15    17 ar
    27    16    37 1
    28    16    38 1
    29    17    18 1
    30    18    19 2
    31    19    39 1
    32    20    21 1
    33    20    31 1
    34    20    40 1
    35    21    22 1
    36    21    41 1
    37    22    42 1
    38    23    24 1
    39    23    49 1
    40    23    47 1
    41    24    25 1
    42    24    29 1
    43    24    43 1
    44    25    26 1
    45    25    44 1
    46    25    45 1
    47    26    27 1
    48    26    28 1
    49    29    30 2
    50    31    46 1
    51    48    23 1
@<TRIPOS>SUBSTRUCTURE
     1 AMO         1 TEMP              0 ****  ****    0 ROOT
