@<TRIPOS>MOLECULE
AMP
   35    37     1     0     0
SMALL
bcc


@<TRIPOS>ATOM
      1 P            0.0000     0.0000     0.0000 p5         1 AMP       0.664900
      2 O1P          1.4800     0.0000     0.0000 o          1 AMP      -0.750833
      3 O2P         -0.5360     0.0000     1.5190 o          1 AMP      -0.750833
      4 O3P         -0.5370     1.3140    -0.7580 o          1 AMP      -0.750833
      5 O5'         -0.5370    -1.3150    -0.7580 os         1 AMP      -0.462200
      6 C5'         -0.1490    -1.6570    -2.0900 c3         1 AMP       0.280400
      7 C4'         -0.8390    -2.9580    -2.5030 c3         1 AMP       0.135100
      8 O4'         -2.2580    -2.7510    -2.5980 os         1 AMP      -0.352600
      9 C3'         -0.3450    -3.3940    -3.8970 c3         1 AMP       0.123100
     10 O3'          0.2740    -4.6800    -3.8290 oh         1 AMP      -0.570800
     11 C2'         -1.6330    -3.4580    -4.7530 c3         1 AMP       0.119100
     12 O2'         -1.6190    -4.6000    -5.6120 oh         1 AMP      -0.557800
     13 C1'         -2.7360    -3.5900    -3.6720 c3         1 AMP       0.123800
     14 N9          -4.0190    -3.0980    -4.1800 na         1 AMP       0.241000
     15 C8          -4.4880    -1.8230    -4.0820 cc         1 AMP       0.293700
     16 N7          -5.6610    -1.7370    -4.6420 nd         1 AMP      -0.542100
     17 C5          -6.0160    -2.9480    -5.1310 ca         1 AMP      -0.234200
     18 C6          -7.1380    -3.4460    -5.8170 ca         1 AMP       0.580200
     19 N6          -8.2020    -2.6200    -6.1310 nv         1 AMP      -0.509500
     20 N1          -7.1520    -4.7320    -6.1570 nb         1 AMP      -0.768000
     21 C2          -6.1410    -5.5280    -5.8630 ca         1 AMP       0.649900
     22 N3          -5.0720    -5.1060    -5.2220 nb         1 AMP      -0.646000
     23 C4          -4.9640    -3.8350    -4.8470 ca         1 AMP       0.252800
     24 H5'1         0.9250    -1.7890    -2.1300 h1         1 AMP      -0.023300
     25 H5'2        -0.4410    -0.8630    -2.7670 h1         1 AMP      -0.023300
     26 H4'         -0.6300    -3.7370    -1.7800 h1         1 AMP       0.039700
     27 H3'          0.3400    -2.6580    -4.3010 h1         1 AMP       0.020700
     28 HO3'         1.1750    -4.6100    -4.0970 ho         1 AMP       0.377000
     29 H2'         -1.7610    -2.5430    -5.3200 h1         1 AMP       0.016700
     30 HO2'        -1.3600    -4.3380    -6.4800 ho         1 AMP       0.372000
     31 H1'         -2.8190    -4.6180    -3.3400 h2         1 AMP       0.059700
     32 H8          -3.9640    -1.0010    -3.6090 h5         1 AMP       0.072800
     33 HN61        -8.1790    -1.6540    -5.8690 hn         1 AMP       0.269300
     34 HN62        -8.9940    -2.9870    -6.6190 hn         1 AMP       0.269300
     35 H2          -6.1940    -6.5690    -6.1590 h5         1 AMP      -0.017900
@<TRIPOS>BOND
     1     1     2 1   
     2     1     3 1   
     3     1     4 1   
     4     1     5 1   
     5     5     6 1   
     6     6     7 1   
     7     6    24 1   
     8     6    25 1   
     9     7     8 1   
    10     7     9 1   
    11     7    26 1   
    12     8    13 1   
    13     9    10 1   
    14     9    11 1   
    15     9    27 1   
    16    10    28 1   
    17    11    12 1   
    18    11    13 1   
    19    11    29 1   
    20    12    30 1   
    21    13    14 1   
    22    13    31 1   
    23    14    15 1   
    24    14    23 1   
    25    15    16 2   
    26    15    32 1   
    27    16    17 1   
    28    17    18 ar  
    29    17    23 ar  
    30    18    19 1   
    31    18    20 ar  
    32    19    33 1   
    33    19    34 1   
    34    20    21 ar  
    35    21    22 ar  
    36    21    35 1   
    37    22    23 ar  
@<TRIPOS>SUBSTRUCTURE
     1 AMP         1 TEMP              0 ****  ****    0 ROOT
