@<TRIPOS>MOLECULE
AMQ
   23    23     1     0     0
SMALL
bcc


@<TRIPOS>ATOM
      1 N          -0.1920    0.4590    0.3180 n4        1 AMQ     -0.825600
      2 CA          1.2340    0.0800    0.0940 c3        1 AMQ     -0.070500
      3 C           1.9670   -0.0880    1.5170 c         1 AMQ      0.937600
      4 OT1         3.2000   -0.2200    1.4610 o         1 AMQ     -0.759300
      5 OT2         1.1880   -0.0890    2.5050 o         1 AMQ     -0.759300
      6 CB          1.9880    1.0860   -0.7590 c3        1 AMQ     -0.014100
      7 CG          1.5770    1.0880   -2.1650 cc        1 AMQ     -0.336900
      8 CD1         0.3170    1.5800   -2.7350 cc        1 AMQ      0.505600
      9 CD2         2.2880    0.6810   -3.2830 cd        1 AMQ      0.312000
     10 CE2         3.6070    0.0950   -3.5130 c3        1 AMQ     -0.151400
     11 OE1        -0.7060    2.0510   -1.9600 oh        1 AMQ     -0.636300
     12 NE1         0.3330    1.4530   -4.0860 nd        1 AMQ     -0.412300
     13 OE2         1.4920    0.9260   -4.4290 os        1 AMQ     -0.108100
     14 H          -0.3080    1.4680    0.2090 hn        1 AMQ      0.447467
     15 HN2        -0.8110   -0.0120   -0.3350 hn        1 AMQ      0.447467
     16 HA          1.2470   -0.9350   -0.3890 hx        1 AMQ      0.090700
     17 HB1         3.0800    0.8060   -0.6690 hc        1 AMQ      0.097200
     18 HB2         1.8830    2.1220   -0.3320 hc        1 AMQ      0.097200
     19 HE21        4.2240    0.7740   -4.1550 hc        1 AMQ      0.078033
     20 HE22        3.5070   -0.8890   -4.0380 hc        1 AMQ      0.078033
     21 HE23        4.1300   -0.0610   -2.5360 hc        1 AMQ      0.078033
     22 HE1        -1.3490    2.5060   -2.5330 ho        1 AMQ      0.457000
     23 HN3        -0.4140    0.1930    1.3020 hn        1 AMQ      0.447467
@<TRIPOS>BOND
     1    1    2 1
     2    1   14 1
     3    1   15 1
     4    1   23 1
     5    2    3 1
     6    2    6 1
     7    2   16 1
     8    3    4 1
     9    3    5 1
    10    6    7 1
    11    6   17 1
    12    6   18 1
    13    7    8 1
    14    7    9 2
    15    8   11 1
    16    8   12 2
    17    9   10 1
    18    9   13 1
    19   10   19 1
    20   10   20 1
    21   10   21 1
    22   11   22 1
    23   12   13 1
@<TRIPOS>SUBSTRUCTURE
     1 AMQ         1 TEMP              0 ****  ****    0 ROOT
