@<TRIPOS>MOLECULE
molecule
   24    24     1     0     0
SMALL
bcc


@<TRIPOS>ATOM
      1 N1           0.0000     0.0000     0.0000 nb         1 AMR      -0.621000
      2 C1           1.3320     0.0000     0.0000 ca         1 AMR       0.143500
      3 C3           2.0710    -0.0080    -1.2740 c          1 AMR       0.621600
      4 N5           1.4050     0.1110    -2.4390 ns         1 AMR      -0.451400
      5 C6           2.1030     0.2250    -3.6250 c2         1 AMR       0.549800
      6 N7           3.4720     0.1090    -3.6300 nz         1 AMR      -0.801600
      7 N6           1.4630     0.4430    -4.7380 n2         1 AMR      -0.740100
      8 O1           3.2820    -0.1190    -1.2750 o          1 AMR      -0.662100
      9 C2           2.0320     0.0000     1.2170 ca         1 AMR       0.675900
     10 N4           3.4140    -0.0000     1.2250 nv         1 AMR      -1.007500
     11 N3           1.3610     0.0120     2.3640 nb         1 AMR      -0.712000
     12 C4           0.0350     0.0120     2.3540 ca         1 AMR       0.680900
     13 N2          -0.6650     0.0180     3.5480 nv         1 AMR      -1.061500
     14 C5          -0.6590     0.0070     1.1370 ca         1 AMR       0.344000
     15 Cl1         -2.3950     0.0060     1.1310 cl         1 AMR      -0.100000
     16 HN5          0.4050     0.1250    -2.4420 hn         1 AMR       0.414500
     17 HN71         3.8090     0.1820    -4.5690 hn         1 AMR       0.476467
     18 HN72         3.7340    -0.7780    -3.2490 hn         1 AMR       0.476467
     19 HN6          1.9680     0.5260    -5.5980 hn         1 AMR       0.449400
     20 HN41         3.9110    -0.6750     1.7730 hn         1 AMR       0.459800
     21 HN42         3.9170     0.6380     0.6410 hn         1 AMR       0.459800
     22 HN21        -1.0810     0.8660     3.8800 hn         1 AMR       0.463800
     23 HN22        -0.7370    -0.8200     4.0900 hn         1 AMR       0.463800
     24 H73          3.8710     0.8330    -3.0650 hn         1 AMR       0.476467
@<TRIPOS>BOND
     1     1     2 ar
     2     1    14 ar
     3     2     3 1
     4     2     9 ar
     5     3     4 1
     6     3     8 2
     7     4     5 1
     8     4    16 1
     9     5     6 1
    10     5     7 2
    11     6    17 1
    12     6    18 1
    13     7    19 1
    14     9    10 1
    15     9    11 ar
    16    10    20 1
    17    10    21 1
    18    11    12 ar
    19    12    13 1
    20    12    14 ar
    21    13    22 1
    22    13    23 1
    23    14    15 1
    24    24     6 1
@<TRIPOS>SUBSTRUCTURE
     1 AMR         1 TEMP              0 ****  ****    0 ROOT
