@<TRIPOS>MOLECULE
AMR
   24    24     1     0     0
SMALL
bcc


@<TRIPOS>ATOM
      1 N1           0.0000     0.0000     0.0000 nb         1 AMR      -0.480000
      2 C1           1.3320     0.0000     0.0000 ca         1 AMR       0.047500
      3 C3           2.0710    -0.0080    -1.2740 c          1 AMR       0.545600
      4 N5           1.4050     0.1110    -2.4390 ns         1 AMR      -0.060400
      5 C6           2.1030     0.2250    -3.6250 c2         1 AMR       0.109800
      6 N7           3.4720     0.1090    -3.6300 nz         1 AMR       0.156400
      7 N6           1.4630     0.4430    -4.7380 n2         1 AMR      -0.562100
      8 O1           3.2820    -0.1190    -1.2750 o          1 AMR      -0.720100
      9 C2           2.0320     0.0000     1.2170 ca         1 AMR       0.490900
     10 N4           3.4140    -0.0000     1.2250 nv         1 AMR      -0.487500
     11 N3           1.3610     0.0120     2.3640 nb         1 AMR      -0.625000
     12 C4           0.0350     0.0120     2.3540 ca         1 AMR       0.512900
     13 N2          -0.6650     0.0180     3.5480 nv         1 AMR      -0.626500
     14 C5          -0.6590     0.0070     1.1370 ca         1 AMR       0.193000
     15 Cl1         -2.3950     0.0060     1.1310 cl         1 AMR      -0.020000
     16 HN5          0.4050     0.1300    -2.4430 hn         1 AMR       0.237500
     17 HN71         3.7340    -0.7780    -3.2480 hn         1 AMR       0.242133
     18 HN72         3.8720     0.8400    -3.0750 hn         1 AMR       0.242133
     19 HN6          0.4660     0.5270    -4.7360 hn         1 AMR       0.378400
     20 HN41         3.9100    -0.5290     1.9150 hn         1 AMR       0.292800
     21 HN42         3.9180     0.5530     0.5610 hn         1 AMR       0.292800
     22 HN21        -1.0820     0.8660     3.8790 hn         1 AMR       0.299800
     23 HN22        -0.7260    -0.8170     4.0970 hn         1 AMR       0.299800
     24 H73          3.8090     0.1940    -4.5680 hn         1 AMR       0.242133
@<TRIPOS>BOND
     1     1     2 ar  
     2     1    14 ar  
     3     2     3 1   
     4     2     9 ar  
     5     3     4 1   
     6     3     8 2   
     7     4     5 1   
     8     4    16 1   
     9     5     6 1   
    10     5     7 2   
    11     6    17 1   
    12     6    18 1   
    13     6    24 1   
    14     7    19 1   
    15     9    10 1   
    16     9    11 ar  
    17    10    20 1   
    18    10    21 1   
    19    11    12 ar  
    20    12    13 1   
    21    12    14 ar  
    22    13    22 1   
    23    13    23 1   
    24    14    15 1   
@<TRIPOS>SUBSTRUCTURE
     1 AMR         1 TEMP              0 ****  ****    0 ROOT
