@<TRIPOS>MOLECULE
molecule
   10    10     1     0     0
SMALL
bcc


@<TRIPOS>ATOM
      1 S1           0.0000     0.0000     0.0000 ss         1 AMT      -0.325300
      2 C2           1.7360     0.0000     0.0000 cc         1 AMT       0.762300
      3 N3           2.0130     0.0000     1.2890 nd         1 AMT      -0.808000
      4 C4           1.0540     0.0070     2.1940 cd         1 AMT       0.406200
      5 C5          -0.2320     0.0060     1.7720 cc         1 AMT      -0.191400
      6 N            2.6070    -0.0040    -1.0790 nv         1 AMT      -0.976500
      7 H4           1.2890     0.0090     3.2510 h4         1 AMT       0.036100
      8 H5          -1.1490     0.0090     2.3490 h4         1 AMT       0.193000
      9 HN1          3.5950    -0.0060    -0.9240 hn         1 AMT       0.452300
     10 HN2          2.2460    -0.0040    -2.0130 hn         1 AMT       0.452300
@<TRIPOS>BOND
     1     1     2 1
     2     1     5 1
     3     2     3 2
     4     2     6 1
     5     3     4 1
     6     4     5 2
     7     4     7 1
     8     5     8 1
     9     6     9 1
    10     6    10 1
@<TRIPOS>SUBSTRUCTURE
     1 AMT         1 TEMP              0 ****  ****    0 ROOT
