@<TRIPOS>MOLECULE
AMV
   41    41     1     0     0
SMALL
bcc


@<TRIPOS>ATOM
      1 C1           0.0000     0.0000     0.0000 c3         1 AMV       0.376900
      2 C2           1.5330     0.0000     0.0000 c3         1 AMV      -0.052300
      3 C3           2.0850     0.0000     1.4290 c3         1 AMV       0.138100
      4 C4           1.4030     1.0600     2.2960 c3         1 AMV       0.158100
      5 C5          -0.1200     0.9610     2.1720 c3         1 AMV       0.161100
      6 C6          -0.8230     2.0780     2.9350 c3         1 AMV       0.223400
      7 C7           2.8210    -1.0250    -1.8630 c          1 AMV       0.608100
      8 C8           3.2300    -2.3330    -2.4540 c3         1 AMV      -0.088100
      9 C9           4.2530    -0.8980     1.2930 c3         1 AMV       0.051100
     10 C10          5.5170    -0.5840     0.5210 c          1 AMV       0.977600
     11 C11          4.5690    -1.3770     2.6990 c3         1 AMV      -0.015100
     12 O1          -0.4470     0.1640    -1.3450 os         1 AMV      -0.385600
     13 O3           3.4830     0.2890     1.3970 os         1 AMV      -0.357600
     14 O4           1.7780     0.8690     3.6580 oh         1 AMV      -0.582800
     15 O5          -0.4990     1.0720     0.7990 os         1 AMV      -0.412600
     16 O6          -2.2210     1.9290     2.7670 oh         1 AMV      -0.582800
     17 O7           3.1920     0.0180    -2.3880 o          1 AMV      -0.602100
     18 O11          5.8250     0.5260     0.1070 o          1 AMV      -0.883300
     19 N2           2.0370    -1.1410    -0.7320 ns         1 AMV      -0.199900
     20 C12         -1.8640     0.1730    -1.4200 c3         1 AMV       0.245700
     21 OXT          6.3020    -1.6800     0.3520 o          1 AMV      -0.883300
     22 H1          -0.3610    -0.9420     0.3950 h2         1 AMV      -0.013300
     23 H2           1.8710     0.9030    -0.4930 h1         1 AMV       0.095700
     24 H3           1.9270    -0.9760     1.8710 h1         1 AMV       0.017700
     25 HA           1.8050    -2.0580    -0.4050 hn         1 AMV       0.165500
     26 H4           1.7210     2.0420     1.9690 h1         1 AMV       0.026700
     27 H5          -0.4460     0.0010     2.5540 h1         1 AMV       0.019700
     28 HB           2.2100     1.6440     3.9760 ho         1 AMV       0.394000
     29 H6C1        -0.5740     2.0120     3.9880 h1         1 AMV      -0.006800
     30 H6C2        -0.5090     3.0390     2.5460 h1         1 AMV      -0.006800
     31 H6          -2.6720     2.5150     3.3520 ho         1 AMV       0.379000
     32 H8C1         4.1610    -2.2100    -2.9940 hc         1 AMV       0.022367
     33 H8C2         2.4610    -2.6780    -3.1350 hc         1 AMV       0.022367
     34 H8C3         3.3640    -3.0610    -1.6630 hc         1 AMV       0.022367
     35 H9           3.6840    -1.6560     0.7690 h1         1 AMV       0.002700
     36 H111         3.6830    -1.8180     3.1380 hc         1 AMV       0.001367
     37 H112         4.8930    -0.5380     3.3020 hc         1 AMV       0.001367
     38 H113         5.3590    -2.1180     2.6580 hc         1 AMV       0.001367
     39 H121        -2.2660    -0.5840    -0.7580 h1         1 AMV      -0.012967
     40 H122        -2.1730    -0.0350    -2.4370 h1         1 AMV      -0.012967
     41 H123        -2.2350     1.1470    -1.1220 h1         1 AMV      -0.012967
@<TRIPOS>BOND
     1     1     2 1   
     2     1    12 1   
     3     1    15 1   
     4     1    22 1   
     5     2     3 1   
     6     2    19 1   
     7     2    23 1   
     8     3     4 1   
     9     3    13 1   
    10     3    24 1   
    11     4     5 1   
    12     4    14 1   
    13     4    26 1   
    14     5     6 1   
    15     5    15 1   
    16     5    27 1   
    17     6    16 1   
    18     6    29 1   
    19     6    30 1   
    20     7     8 1   
    21     7    17 2   
    22     7    19 1   
    23     8    32 1   
    24     8    33 1   
    25     8    34 1   
    26     9    10 1   
    27     9    11 1   
    28     9    13 1   
    29     9    35 1   
    30    10    18 1   
    31    10    21 1   
    32    11    36 1   
    33    11    37 1   
    34    11    38 1   
    35    12    20 1   
    36    14    28 1   
    37    16    31 1   
    38    19    25 1   
    39    20    39 1   
    40    20    40 1   
    41    20    41 1   
@<TRIPOS>SUBSTRUCTURE
     1 AMV         1 TEMP              0 ****  ****    0 ROOT
