@<TRIPOS>MOLECULE
molecule
   76    77     1     0     0
SMALL
bcc


@<TRIPOS>ATOM
      1 C1           0.0000     0.0000     0.0000 ca         1 AMY       0.144100
      2 C2           1.3930     0.0000     0.0000 ca         1 AMY      -0.002400
      3 C3           2.0850     0.0000     1.2010 ca         1 AMY      -0.084000
      4 C5           0.0200     0.0120     2.4180 ca         1 AMY      -0.102000
      5 O5          -5.8270    -1.8290     2.0910 os         1 AMY      -0.416900
      6 C6          -0.6930     0.0110     1.2150 ca         1 AMY      -0.154600
      7 C7          -2.1680     0.0180     1.2290 c          1 AMY       0.678700
      8 C9          -4.2970     0.0300     2.4130 c3         1 AMY      -0.029300
      9 O9         -10.0940     2.3500     2.3280 o          1 AMY      -0.554000
     10 C11         -6.9230     1.3180     2.1380 c3         1 AMY       0.126100
     11 C12         -8.1100     0.5990     2.7570 c3         1 AMY       0.158100
     12 C13         -7.6170    -0.6970     3.3770 c3         1 AMY      -0.183700
     13 C14         -7.1070    -1.5290     2.2380 c          1 AMY       0.735600
     14 C4           1.3970     0.0070     2.4030 ca         1 AMY      -0.134000
     15 N1           2.0950    -0.0060    -1.2120 ns         1 AMY      -0.489100
     16 N2          -2.8330     0.0240     2.4010 ns         1 AMY      -0.569900
     17 O1          -0.6820    -0.0010    -1.1740 oh         1 AMY      -0.488100
     18 O2           3.6640    -1.3350    -0.3820 o          1 AMY      -0.595100
     19 O3          -2.7850     0.0180     0.1810 o          1 AMY      -0.583100
     20 C10         -4.7690    -1.3140     2.8980 c3         1 AMY       0.163100
     21 O4          -5.9640     1.7230     3.1360 os         1 AMY      -0.399900
     22 C15         -8.7700    -1.4170     4.0810 c3         1 AMY      -0.063400
     23 C16         -8.2660    -2.7410     4.6600 c3         1 AMY      -0.089400
     24 C17         -9.4190    -3.4600     5.3630 c3         1 AMY      -0.078400
     25 C18         -8.9150    -4.7830     5.9420 c3         1 AMY      -0.084400
     26 C19        -10.0670    -5.5030     6.6470 c3         1 AMY      -0.092100
     27 C20         -4.7520     1.1900     3.2210 c          1 AMY       0.725600
     28 O7          -3.9720     1.6770     4.0040 o          1 AMY      -0.579500
     29 O8          -8.7060     1.4360     3.7830 os         1 AMY      -0.420900
     30 C21         -9.6970     2.2840     3.4670 c          1 AMY       0.640100
     31 C22        -10.3160     3.1510     4.5310 c3         1 AMY      -0.118400
     32 C23        -11.4130     4.0170     3.9110 c3         1 AMY      -0.066700
     33 C24        -12.0410     4.8990     4.9920 c3         1 AMY      -0.090600
     34 C25        -10.8080     4.9020     2.8200 c3         1 AMY      -0.090600
     35 C26         -3.5960    -2.2960     2.8620 c3         1 AMY      -0.077100
     36 C27         -7.4230     2.5580     1.3960 c3         1 AMY      -0.117100
     37 H3           3.1680    -0.0020     1.1990 ha         1 AMY       0.165000
     38 H5          -0.5110     0.0190     3.3620 ha         1 AMY       0.132000
     39 H8           3.8590    -0.5850    -2.2140 h5         1 AMY       0.036200
     40 H9          -4.6510     0.1650     1.3980 h1         1 AMY       0.122700
     41 H11         -6.4380     0.6520     1.4350 h1         1 AMY       0.061700
     42 H12         -8.8410     0.3790     1.9890 h1         1 AMY       0.105700
     43 H13         -6.8160    -0.4930     4.0760 hc         1 AMY       0.075700
     44 H4           1.9460     0.0070     3.3370 ha         1 AMY       0.142000
     45 HN1          1.7580     0.5310    -1.9870 hn         1 AMY       0.334500
     46 HN2         -2.3260     0.0660     3.2630 hn         1 AMY       0.335500
     47 HO1         -0.5260    -0.8130    -1.6270 ho         1 AMY       0.425000
     48 H10         -5.1210    -1.2150     3.9180 h1         1 AMY       0.048700
     49 H151        -9.5620    -1.6120     3.3680 hc         1 AMY       0.064700
     50 H152        -9.1500    -0.7930     4.8810 hc         1 AMY       0.064700
     51 H161        -7.8860    -3.3640     3.8590 hc         1 AMY       0.044200
     52 H162        -7.4740    -2.5450     5.3720 hc         1 AMY       0.044200
     53 H171       -10.2110    -3.6560     4.6510 hc         1 AMY       0.044700
     54 H172        -9.7990    -2.8370     6.1640 hc         1 AMY       0.044700
     55 H181        -8.1230    -4.5880     6.6540 hc         1 AMY       0.040700
     56 H182        -8.5360    -5.4070     5.1420 hc         1 AMY       0.040700
     57 H191       -10.4540    -4.8750     7.4410 hc         1 AMY       0.033700
     58 H192       -10.8560    -5.7080     5.9320 hc         1 AMY       0.033700
     59 H193        -9.7090    -6.4350     7.0660 hc         1 AMY       0.033700
     60 H221       -10.7450     2.5240     5.3040 hc         1 AMY       0.075200
     61 H222        -9.5550     3.7890     4.9650 hc         1 AMY       0.075200
     62 H23        -12.1740     3.3800     3.4780 hc         1 AMY       0.064700
     63 H241       -12.4190     4.2750     5.7920 hc         1 AMY       0.039033
     64 H242       -12.8550     5.4710     4.5640 hc         1 AMY       0.039033
     65 H243       -11.2920     5.5760     5.3850 hc         1 AMY       0.039033
     66 H251       -11.3520     5.8380     2.7710 hc         1 AMY       0.039033
     67 H252       -10.8760     4.3960     1.8650 hc         1 AMY       0.039033
     68 H253        -9.7690     5.1010     3.0510 hc         1 AMY       0.039033
     69 H261        -2.8360    -1.9770     3.5650 hc         1 AMY       0.056033
     70 H262        -3.9450    -3.2850     3.1330 hc         1 AMY       0.056033
     71 H263        -3.1770    -2.3210     1.8640 hc         1 AMY       0.056033
     72 H271        -8.4600     2.4180     1.1160 hc         1 AMY       0.066700
     73 H272        -7.3360     3.4240     2.0400 hc         1 AMY       0.066700
     74 H273        -6.8260     2.7100     0.5050 hc         1 AMY       0.066700
     75 O6          -7.8970    -1.9420     1.4210 o          1 AMY      -0.567500
     76 C8           3.2670    -0.6630    -1.3100 c          1 AMY       0.656900
@<TRIPOS>BOND
     1     1     2 ar
     2     1     6 ar
     3     1    17 1
     4     2     3 ar
     5     2    15 1
     6     3    14 ar
     7     3    37 1
     8     4     6 ar
     9     4    14 ar
    10     4    38 1
    11     5    13 1
    12     5    20 1
    13     6     7 1
    14     7    16 1
    15     7    19 2
    16    76    15 1
    17    76    18 2
    18    76    39 1
    19     8    16 1
    20     8    20 1
    21     8    27 1
    22     8    40 1
    23     9    30 2
    24    10    11 1
    25    10    21 1
    26    10    36 1
    27    10    41 1
    28    11    12 1
    29    11    29 1
    30    11    42 1
    31    12    13 1
    32    12    22 1
    33    12    43 1
    34    13    75 2
    35    14    44 1
    36    15    45 1
    37    16    46 1
    38    17    47 1
    39    20    35 1
    40    20    48 1
    41    21    27 1
    42    22    23 1
    43    22    49 1
    44    22    50 1
    45    23    24 1
    46    23    51 1
    47    23    52 1
    48    24    25 1
    49    24    53 1
    50    24    54 1
    51    25    26 1
    52    25    55 1
    53    25    56 1
    54    26    57 1
    55    26    58 1
    56    26    59 1
    57    27    28 2
    58    29    30 1
    59    30    31 1
    60    31    32 1
    61    31    60 1
    62    31    61 1
    63    32    33 1
    64    32    34 1
    65    32    62 1
    66    33    63 1
    67    33    64 1
    68    33    65 1
    69    34    66 1
    70    34    67 1
    71    34    68 1
    72    35    69 1
    73    35    70 1
    74    35    71 1
    75    36    72 1
    76    36    73 1
    77    36    74 1
@<TRIPOS>SUBSTRUCTURE
     1 AMY         1 TEMP              0 ****  ****    0 ROOT
