@<TRIPOS>MOLECULE
AMY
   76    77     1     0     0
SMALL
bcc


@<TRIPOS>ATOM
      1 C1           0.0000     0.0000     0.0000 ca         1 AMY       0.174100
      2 C2           1.3930     0.0000     0.0000 ca         1 AMY      -0.157400
      3 C3           2.0850     0.0000     1.2010 ca         1 AMY      -0.051000
      4 C5           0.0200     0.0120     2.4180 ca         1 AMY      -0.072000
      5 O5          -5.8270    -1.8290     2.0910 os         1 AMY      -0.389900
      6 C6          -0.6930     0.0110     1.2150 ca         1 AMY      -0.177600
      7 C7          -2.1680     0.0180     1.2290 c          1 AMY       0.604700
      8 C9          -4.2970     0.0300     2.4130 c3         1 AMY      -0.143300
      9 O9         -10.0940     2.3500     2.3280 o          1 AMY      -0.586000
     10 C11         -6.9230     1.3180     2.1380 c3         1 AMY       0.142100
     11 C12         -8.1100     0.5990     2.7570 c3         1 AMY       0.184100
     12 C13         -7.6170    -0.6970     3.3770 c3         1 AMY      -0.173700
     13 C14         -7.1070    -1.5290     2.2380 c          1 AMY       0.788600
     14 C4           1.3970     0.0070     2.4030 ca         1 AMY      -0.111000
     15 N1           2.0950    -0.0060    -1.2120 ns         1 AMY      -0.061100
     16 N2          -2.8330     0.0240     2.4010 ns         1 AMY      -0.184900
     17 O1          -0.6820    -0.0010    -1.1740 oh         1 AMY      -0.464100
     18 O2           3.6640    -1.3350    -0.3820 o          1 AMY      -0.637100
     19 O3          -2.7850     0.0180     0.1810 o          1 AMY      -0.629100
     20 C10         -4.7690    -1.3140     2.8980 c3         1 AMY       0.195100
     21 O4          -5.9640     1.7230     3.1360 os         1 AMY      -0.372900
     22 C15         -8.7700    -1.4170     4.0810 c3         1 AMY      -0.011400
     23 C16         -8.2660    -2.7410     4.6600 c3         1 AMY      -0.038400
     24 C17         -9.4190    -3.4600     5.3630 c3         1 AMY      -0.025400
     25 C18         -8.9150    -4.7830     5.9420 c3         1 AMY      -0.028400
     26 C19        -10.0670    -5.5030     6.6470 c3         1 AMY       0.006900
     27 C20         -4.7520     1.1900     3.2210 c          1 AMY       0.782600
     28 O7          -3.9720     1.6770     4.0040 o          1 AMY      -0.624500
     29 O8          -8.7060     1.4360     3.7830 os         1 AMY      -0.401900
     30 C21         -9.6970     2.2840     3.4670 c          1 AMY       0.701100
     31 C22        -10.3160     3.1510     4.5310 c3         1 AMY      -0.064400
     32 C23        -11.4130     4.0170     3.9110 c3         1 AMY      -0.041700
     33 C24        -12.0410     4.8990     4.9920 c3         1 AMY      -0.002600
     34 C25        -10.8080     4.9020     2.8200 c3         1 AMY      -0.002600
     35 C26         -3.5960    -2.2960     2.8620 c3         1 AMY      -0.008100
     36 C27         -7.4230     2.5580     1.3960 c3         1 AMY      -0.045100
     37 H3           3.1680    -0.0020     1.1990 ha         1 AMY       0.138000
     38 H5          -0.5110     0.0190     3.3620 ha         1 AMY       0.106000
     39 H8           3.8590    -0.5850    -2.2140 h5         1 AMY      -0.013800
     40 H9          -4.6510     0.1650     1.3980 h1         1 AMY       0.104700
     41 H11         -6.4380     0.6520     1.4350 h1         1 AMY       0.034700
     42 H12         -8.8410     0.3790     1.9890 h1         1 AMY       0.074700
     43 H13         -6.8160    -0.4930     4.0760 hc         1 AMY       0.055700
     44 H4           1.9460     0.0070     3.3370 ha         1 AMY       0.111000
     45 HN1          1.7580     0.5310    -1.9870 hn         1 AMY       0.178500
     46 HN2         -2.3260     0.0660     3.2630 hn         1 AMY       0.203500
     47 HO1         -0.5260    -0.8130    -1.6270 ho         1 AMY       0.403000
     48 H10         -5.1210    -1.2150     3.9180 h1         1 AMY       0.018700
     49 H151        -9.5620    -1.6120     3.3680 hc         1 AMY       0.035200
     50 H152        -9.1500    -0.7930     4.8810 hc         1 AMY       0.035200
     51 H161        -7.8860    -3.3640     3.8590 hc         1 AMY       0.017700
     52 H162        -7.4740    -2.5450     5.3720 hc         1 AMY       0.017700
     53 H171       -10.2110    -3.6560     4.6510 hc         1 AMY       0.017700
     54 H172        -9.7990    -2.8370     6.1640 hc         1 AMY       0.017700
     55 H181        -8.1230    -4.5880     6.6540 hc         1 AMY       0.012700
     56 H182        -8.5360    -5.4070     5.1420 hc         1 AMY       0.012700
     57 H191       -10.4540    -4.8750     7.4410 hc         1 AMY       0.001367
     58 H192       -10.8560    -5.7080     5.9320 hc         1 AMY       0.001367
     59 H193        -9.7090    -6.4350     7.0660 hc         1 AMY       0.001367
     60 H221       -10.7450     2.5240     5.3040 hc         1 AMY       0.040200
     61 H222        -9.5550     3.7890     4.9650 hc         1 AMY       0.040200
     62 H23        -12.1740     3.3800     3.4780 hc         1 AMY       0.038700
     63 H241       -12.4190     4.2750     5.7920 hc         1 AMY       0.008200
     64 H242       -12.8550     5.4710     4.5640 hc         1 AMY       0.008200
     65 H243       -11.2920     5.5760     5.3850 hc         1 AMY       0.008200
     66 H251       -11.3520     5.8380     2.7710 hc         1 AMY       0.008200
     67 H252       -10.8760     4.3960     1.8650 hc         1 AMY       0.008200
     68 H253        -9.7690     5.1010     3.0510 hc         1 AMY       0.008200
     69 H261        -2.8360    -1.9770     3.5650 hc         1 AMY       0.024033
     70 H262        -3.9450    -3.2850     3.1330 hc         1 AMY       0.024033
     71 H263        -3.1770    -2.3210     1.8640 hc         1 AMY       0.024033
     72 H271        -8.4600     2.4180     1.1160 hc         1 AMY       0.034700
     73 H272        -7.3360     3.4240     2.0400 hc         1 AMY       0.034700
     74 H273        -6.8260     2.7100     0.5050 hc         1 AMY       0.034700
     75 O6          -7.8970    -1.9420     1.4210 o          1 AMY      -0.606500
     76 C8           3.2670    -0.6630    -1.3100 c          1 AMY       0.603900
@<TRIPOS>BOND
     1     1     2 ar  
     2     1     6 ar  
     3     1    17 1   
     4     2     3 ar  
     5     2    15 1   
     6     3    14 ar  
     7     3    37 1   
     8     4     6 ar  
     9     4    14 ar  
    10     4    38 1   
    11     5    13 1   
    12     5    20 1   
    13     6     7 1   
    14     7    16 1   
    15     7    19 2   
    16     8    16 1   
    17     8    20 1   
    18     8    27 1   
    19     8    40 1   
    20     9    30 2   
    21    10    11 1   
    22    10    21 1   
    23    10    36 1   
    24    10    41 1   
    25    11    12 1   
    26    11    29 1   
    27    11    42 1   
    28    12    13 1   
    29    12    22 1   
    30    12    43 1   
    31    13    75 2   
    32    14    44 1   
    33    15    45 1   
    34    15    76 1   
    35    16    46 1   
    36    17    47 1   
    37    18    76 2   
    38    20    35 1   
    39    20    48 1   
    40    21    27 1   
    41    22    23 1   
    42    22    49 1   
    43    22    50 1   
    44    23    24 1   
    45    23    51 1   
    46    23    52 1   
    47    24    25 1   
    48    24    53 1   
    49    24    54 1   
    50    25    26 1   
    51    25    55 1   
    52    25    56 1   
    53    26    57 1   
    54    26    58 1   
    55    26    59 1   
    56    27    28 2   
    57    29    30 1   
    58    30    31 1   
    59    31    32 1   
    60    31    60 1   
    61    31    61 1   
    62    32    33 1   
    63    32    34 1   
    64    32    62 1   
    65    33    63 1   
    66    33    64 1   
    67    33    65 1   
    68    34    66 1   
    69    34    67 1   
    70    34    68 1   
    71    35    69 1   
    72    35    70 1   
    73    35    71 1   
    74    36    72 1   
    75    36    73 1   
    76    36    74 1   
    77    39    76 1   
@<TRIPOS>SUBSTRUCTURE
     1 AMY         1 TEMP              0 ****  ****    0 ROOT
