@<TRIPOS>MOLECULE
AMZ
   35    36     1     0     0
SMALL
bcc


@<TRIPOS>ATOM
      1 O5          0.2480    1.4430   -0.0910 o         1 AMZ     -0.696100
      2 C6          1.2420    0.6710   -0.0440 c         1 AMZ      0.621600
      3 N2          1.7620    0.3400    1.1910 n         1 AMZ     -0.669000
      4 C3A         1.8530    0.1060   -1.2380 cc        1 AMZ      0.121800
      5 C7A         1.3610    0.2960   -2.5740 cd        1 AMZ      0.111000
      6 N3          0.1870    0.9050   -2.9800 nh        1 AMZ     -0.809200
      7 N1          3.0290   -0.6670   -1.2760 nc        1 AMZ     -0.681000
      8 C5          3.2580   -0.9270   -2.5700 cd        1 AMZ      0.429400
      9 N           2.2720   -0.3700   -3.4090 na        1 AMZ     -0.229900
     10 C1          2.1760   -0.4340   -4.8580 c3        1 AMZ      0.220800
     11 C2          2.3430    0.9550   -5.5600 c3        1 AMZ      0.089100
     12 C3          3.3460    0.6950   -6.7040 c3        1 AMZ      0.136100
     13 O2          2.6990    0.9140   -7.9360 oh        1 AMZ     -0.692800
     14 O1          1.0660    1.4200   -5.9420 oh        1 AMZ     -0.640800
     15 O           3.1710   -1.3170   -5.3550 os        1 AMZ     -0.437600
     16 C           3.7700   -0.7780   -6.5640 c3        1 AMZ      0.066100
     17 C4          5.3060   -0.9810   -6.5080 c3        1 AMZ      0.237400
     18 O3          5.7860   -1.2940   -7.7490 os        1 AMZ     -0.557200
     19 P           6.5290    0.0500   -8.5800 p5        1 AMZ      1.336900
     20 OP1         6.9580   -0.5390   -9.8860 o         1 AMZ     -0.930500
     21 O4          5.3170    0.9650   -8.6090 o         1 AMZ     -0.930500
     22 OP2         7.5830    0.4680   -7.5980 o         1 AMZ     -0.930500
     23 H11         1.4300    0.8200    1.9870 hn        1 AMZ      0.302000
     24 H12         2.6090   -0.1630    1.2570 hn        1 AMZ      0.302000
     25 H9         -0.1820    1.5150   -2.2780 hn        1 AMZ      0.426300
     26 H10         0.1950    1.2800   -3.9080 hn        1 AMZ      0.426300
     27 H13         4.0950   -1.4940   -3.0010 h5        1 AMZ      0.090100
     28 H2          1.1600   -0.8720   -5.1030 h2        1 AMZ      0.059700
     29 H3          2.7480    1.7310   -4.8560 h1        1 AMZ      0.064700
     30 H4          4.2360    1.3800   -6.6180 h1        1 AMZ      0.123700
     31 H5          3.4290    0.9990   -8.5990 ho        1 AMZ      0.519000
     32 H1          0.9620    1.2710   -6.8930 ho        1 AMZ      0.441000
     33 H6          3.3470   -1.3830   -7.4120 h1        1 AMZ      0.073700
     34 H7          5.4950   -1.8390   -5.7970 h1        1 AMZ      0.001700
     35 H8          5.7980   -0.0530   -6.1030 h1        1 AMZ      0.001700
@<TRIPOS>BOND
     1    1    2 2   
     2    2    3 1   
     3    2    4 1   
     4    3   23 1   
     5    3   24 1   
     6    4    5 2   
     7    4    7 1   
     8    5    6 1   
     9    5    9 1   
    10    6   25 1   
    11    6   26 1   
    12    7    8 2   
    13    8    9 1   
    14    8   27 1   
    15    9   10 1   
    16   10   11 1   
    17   10   15 1   
    18   10   28 1   
    19   11   12 1   
    20   11   14 1   
    21   11   29 1   
    22   12   13 1   
    23   12   16 1   
    24   12   30 1   
    25   13   31 1   
    26   14   32 1   
    27   15   16 1   
    28   16   17 1   
    29   16   33 1   
    30   17   18 1   
    31   17   34 1   
    32   17   35 1   
    33   18   19 1   
    34   19   20 1   
    35   19   21 1   
    36   19   22 1   
@<TRIPOS>SUBSTRUCTURE
     1 AMZ         1 TEMP              0 ****  ****    0 ROOT
