@<TRIPOS>MOLECULE
molecule
   36    37     1     0     0
SMALL
bcc


@<TRIPOS>ATOM
      1 O5           0.0000     0.0000     0.0000 o          1 AMZ      -0.590100
      2 C6           1.2160     0.0000     0.0000 c          1 AMZ       0.317600
      3 N2           1.8910     0.0000     1.1670 nz         1 AMZ      -0.626400
      4 C3A          1.9490    -0.0010    -1.2690 cc         1 AMZ       0.139800
      5 C7A          1.3930    -0.0070    -2.5400 cd         1 AMZ       0.164000
      6 N3           0.0490    -0.0090    -2.8540 nv         1 AMZ      -0.879200
      7 N1           3.3010    -0.0010    -1.4200 nc         1 AMZ      -0.745000
      8 C5           3.5890    -0.0020    -2.6870 cd         1 AMZ       0.482400
      9 N            2.4370    -0.0010    -3.4170 na         1 AMZ      -0.213900
     10 C1           2.3400    -0.0030    -4.8780 c3         1 AMZ       0.227800
     11 C2           2.3410     1.4440    -5.4180 c3         1 AMZ       0.075100
     12 C3           3.1620     1.3540    -6.7250 c3         1 AMZ       0.097100
     13 O2           2.3610     1.7340    -7.8470 oh         1 AMZ      -0.577800
     14 O1           1.0100     1.8840    -5.6920 oh         1 AMZ      -0.582800
     15 O            3.5090    -0.6180    -5.4590 os         1 AMZ      -0.366600
     16 C            3.5540    -0.1370    -6.8200 c3         1 AMZ       0.125100
     17 C4           4.9660    -0.2840    -7.3900 c3         1 AMZ       0.165400
     18 O3           5.3340    -1.6630    -7.4020 os         1 AMZ      -0.526200
     19 P            6.8230    -1.7430    -8.0090 p5         1 AMZ       1.157900
     20 OP1          7.3040    -3.2790    -8.0520 o          1 AMZ      -0.799833
     21 O4           6.8260    -1.1400    -9.5020 o          1 AMZ      -0.799833
     22 OP2          7.7460    -0.9610    -7.1580 o          1 AMZ      -0.799833
     23 H11          2.4670    -0.8170     1.2200 hn         1 AMZ       0.444133
     24 H12          1.2410    -0.0000     1.9280 hn         1 AMZ       0.444133
     25 H9          -0.6240     0.2900    -2.1760 hn         1 AMZ       0.457800
     26 H10         -0.2540    -0.3290    -3.7520 hn         1 AMZ       0.457800
     27 H13          4.5910     0.0000    -3.1010 h5         1 AMZ       0.112100
     28 H2           1.4450    -0.5210    -5.2000 h2         1 AMZ       0.083700
     29 H3           2.8280     2.1070    -4.7140 h1         1 AMZ       0.046700
     30 H4           4.0480     1.9730    -6.6570 h1         1 AMZ       0.064700
     31 H5           2.7350     2.4960    -8.2560 ho         1 AMZ       0.402000
     32 H1           0.8840     2.7470    -5.3320 ho         1 AMZ       0.398000
     33 H6           2.8380    -0.6740    -7.4300 h1         1 AMZ       0.079700
     34 H7           4.9900     0.1050    -8.4010 h1         1 AMZ       0.059700
     35 H8           5.6640     0.2710    -6.7740 h1         1 AMZ       0.059700
     36 H23          2.4610     0.8210     1.2230 hn         1 AMZ       0.444133
@<TRIPOS>BOND
     1     1     2 2
     2     2     3 1
     3     2     4 1
     4     3    23 1
     5     3    24 1
     6     4     5 2
     7     4     7 1
     8     5     6 1
     9     5     9 1
    10     6    25 1
    11     6    26 1
    12     7     8 2
    13     8     9 1
    14     8    27 1
    15     9    10 1
    16    10    11 1
    17    10    15 1
    18    10    28 1
    19    11    12 1
    20    11    14 1
    21    11    29 1
    22    12    13 1
    23    12    16 1
    24    12    30 1
    25    13    31 1
    26    14    32 1
    27    15    16 1
    28    16    17 1
    29    16    33 1
    30    17    18 1
    31    17    34 1
    32    17    35 1
    33    18    19 1
    34    19    20 1
    35    19    21 1
    36    19    22 1
    37    36     3 1
@<TRIPOS>SUBSTRUCTURE
     1 AMZ         1 TEMP              0 ****  ****    0 ROOT
