@<TRIPOS>MOLECULE
molecule
   23    22     1     0     0
SMALL
bcc


@<TRIPOS>ATOM
      1 CA           1.5070     0.0000     0.0000 c3         1 AN0       0.004700
      2 C            0.0000     0.0000     0.0000 c          1 AN0       0.886600
      3 O           -0.6040     0.9060    -0.5240 o          1 AN0      -0.842300
      4 OXT         -0.6710    -1.0070     0.5810 o          1 AN0      -0.842300
      5 CB           2.0170     0.0000     1.4420 c3         1 AN0      -0.075400
      6 CG           3.5420    -0.1250     1.4440 c3         1 AN0      -0.090400
      7 CD           4.0510    -0.1250     2.8870 c3         1 AN0      -0.092100
      8 N1           1.9960     1.1960    -0.6910 ns         1 AN0      -0.549900
      9 C1           2.1240     1.1940    -2.0330 c          1 AN0       0.660100
     10 O1           1.8350     0.2020    -2.6680 o          1 AN0      -0.624100
     11 C2           2.6270     2.4250    -2.7430 c3         1 AN0      -0.173100
     12 HA           1.8680    -0.8850    -0.5110 h1         1 AN0       0.073700
     13 HB1          1.5860    -0.8370     1.9780 hc         1 AN0       0.053200
     14 HB2          1.7300     0.9260     1.9270 hc         1 AN0       0.053200
     15 HG1          3.9740     0.7110     0.9080 hc         1 AN0       0.033700
     16 HG2          3.8290    -1.0510     0.9600 hc         1 AN0       0.033700
     17 HD1          3.7710     0.8040     3.3680 hc         1 AN0       0.022033
     18 HD2          3.6130    -0.9570     3.4250 hc         1 AN0       0.022033
     19 HD3          5.1300    -0.2220     2.8890 hc         1 AN0       0.022033
     20 HN1          2.1860     2.0310    -0.1710 hn         1 AN0       0.293500
     21 H21          2.0710     3.2900    -2.4020 hc         1 AN0       0.044033
     22 H22          2.4910     2.3060    -3.8110 hc         1 AN0       0.044033
     23 H23          3.6790     2.5630    -2.5250 hc         1 AN0       0.044033
@<TRIPOS>BOND
     1     1     2 1
     2     1     5 1
     3     1     8 1
     4     1    12 1
     5     2     3 1
     6     2     4 1
     7     5     6 1
     8     5    13 1
     9     5    14 1
    10     6     7 1
    11     6    15 1
    12     6    16 1
    13     7    17 1
    14     7    18 1
    15     7    19 1
    16     8     9 1
    17     8    20 1
    18     9    10 2
    19     9    11 1
    20    11    21 1
    21    11    22 1
    22    11    23 1
@<TRIPOS>SUBSTRUCTURE
     1 AN0         1 TEMP              0 ****  ****    0 ROOT
