@<TRIPOS>MOLECULE
AN1
   35    37     1     0     0
SMALL
bcc


@<TRIPOS>ATOM
      1 O1          0.4940   -0.4910    0.5310 o         1 AN1     -0.845800
      2 C1          1.5450   -0.8580   -0.0610 c         1 AN1      0.908600
      3 O2          2.1800   -1.9210    0.2110 o         1 AN1     -0.845800
      4 C2          2.0800    0.0270   -1.2040 c3        1 AN1     -0.198400
      5 C3          3.5730    0.2490   -1.0710 c3        1 AN1     -0.050100
      6 C4          4.2900    0.1860   -2.3780 ca        1 AN1      0.004700
      7 C5          4.6470    1.3560   -3.0740 ca        1 AN1     -0.058000
      8 C6          4.2110    2.6510   -2.6360 ca        1 AN1     -0.088000
      9 C7          4.5990    3.7920   -3.2750 ca        1 AN1     -0.167500
     10 C8          5.4610    3.7150   -4.4040 ca        1 AN1     -0.123000
     11 C9          5.8660    2.5010   -4.8750 ca        1 AN1     -0.147500
     12 C10         5.4490    1.2740   -4.2570 ca        1 AN1     -0.012000
     13 C11         5.8160    0.0180   -4.7730 ca        1 AN1     -0.102300
     14 C12         5.4440   -1.1570   -4.0870 ca        1 AN1     -0.012000
     15 C13         4.6500   -1.0750   -2.9040 ca        1 AN1     -0.058000
     16 C14         4.2180   -2.2900   -2.2720 ca        1 AN1     -0.088000
     17 C15         4.6080   -3.5070   -2.7550 ca        1 AN1     -0.167500
     18 C16         5.4530   -3.5900   -3.8940 ca        1 AN1     -0.123000
     19 C17         5.8540   -2.4540   -4.5380 ca        1 AN1     -0.147500
     20 C18         6.5800   -0.0860   -6.0410 c3        1 AN1     -0.042800
     21 H2          1.5410    1.0060   -1.2040 hc        1 AN1      0.032200
     22 H3          1.8450   -0.4970   -2.1650 hc        1 AN1      0.032200
     23 H4          3.9960   -0.5390   -0.3830 hc        1 AN1      0.058700
     24 H5          3.7690    1.2280   -0.5580 hc        1 AN1      0.058700
     25 H6          3.5240    2.7110   -1.7760 ha        1 AN1      0.184000
     26 H7          4.2550    4.7780   -2.9350 ha        1 AN1      0.126500
     27 H8          5.7900    4.6470   -4.8850 ha        1 AN1      0.113000
     28 H9          6.5430    2.4570   -5.7410 ha        1 AN1      0.116500
     29 H10         3.5360   -2.2300   -1.3900 ha        1 AN1      0.184000
     30 H11         4.2700   -4.4340   -2.2700 ha        1 AN1      0.126500
     31 H12         5.7750   -4.5800   -4.2470 ha        1 AN1      0.113000
     32 H13         6.5160   -2.5300   -5.4120 ha        1 AN1      0.116500
     33 H14         6.2620   -0.9830   -6.6290 hc        1 AN1      0.033367
     34 H15         6.4160    0.7980   -6.7040 hc        1 AN1      0.033367
     35 H16         7.6750   -0.1720   -5.8280 hc        1 AN1      0.033367
@<TRIPOS>BOND
     1    1    2 1   
     2    2    3 1   
     3    2    4 1   
     4    4    5 1   
     5    4   21 1   
     6    4   22 1   
     7    5    6 1   
     8    5   23 1   
     9    5   24 1   
    10    6    7 ar  
    11    6   15 ar  
    12    7    8 ar  
    13    7   12 ar  
    14    8    9 ar  
    15    8   25 1   
    16    9   10 ar  
    17    9   26 1   
    18   10   11 ar  
    19   10   27 1   
    20   11   12 ar  
    21   11   28 1   
    22   12   13 ar  
    23   13   14 ar  
    24   13   20 1   
    25   14   15 ar  
    26   14   19 ar  
    27   15   16 ar  
    28   16   17 ar  
    29   16   29 1   
    30   17   18 ar  
    31   17   30 1   
    32   18   19 ar  
    33   18   31 1   
    34   19   32 1   
    35   20   33 1   
    36   20   34 1   
    37   20   35 1   
@<TRIPOS>SUBSTRUCTURE
     1 AN1         1 TEMP              0 ****  ****    0 ROOT
