@<TRIPOS>MOLECULE
molecule
   35    37     1     0     0
SMALL
bcc


@<TRIPOS>ATOM
      1 O1           0.0000     0.0000     0.0000 o          1 AN1      -0.850800
      2 C1           1.3420     0.0000     0.0000 c          1 AN1       0.889600
      3 O2           1.9460     0.0000     1.0460 o          1 AN1      -0.850800
      4 C2           2.0960    -0.0000    -1.3050 c3         1 AN1      -0.182400
      5 C3           3.5990     0.0000    -1.0250 c3         1 AN1      -0.036100
      6 C4           4.3530    -0.0000    -2.3310 ca         1 AN1      -0.008300
      7 C5           4.7030     1.2040    -2.9380 ca         1 AN1      -0.055000
      8 C6           4.3660     2.4420    -2.3510 ca         1 AN1      -0.079500
      9 C7           4.7220     3.5970    -2.9680 ca         1 AN1      -0.162000
     10 C8           5.4200     3.5960    -4.1770 ca         1 AN1      -0.119000
     11 C9           5.7770     2.4410    -4.7940 ca         1 AN1      -0.143500
     12 C10          5.4370     1.2040    -4.2070 ca         1 AN1      -0.011500
     13 C11          5.7870    -0.0000    -4.8140 ca         1 AN1      -0.108300
     14 C12          5.4320    -1.2040    -4.2100 ca         1 AN1      -0.011500
     15 C13          4.7030    -1.2040    -2.9370 ca         1 AN1      -0.055000
     16 C14          4.3650    -2.4420    -2.3500 ca         1 AN1      -0.079500
     17 C15          4.7220    -3.5970    -2.9680 ca         1 AN1      -0.162000
     18 C16          5.4200    -3.5970    -4.1750 ca         1 AN1      -0.119000
     19 C17          5.7770    -2.4420    -4.7940 ca         1 AN1      -0.143500
     20 C18          6.5400    -0.0000    -6.1200 c3         1 AN1      -0.040800
     21 H2           1.8340     0.8840    -1.8730 hc         1 AN1       0.036700
     22 H3           1.8340    -0.8840    -1.8730 hc         1 AN1       0.036700
     23 H4           3.8610     0.8850    -0.4570 hc         1 AN1       0.060700
     24 H5           3.8610    -0.8840    -0.4570 hc         1 AN1       0.060700
     25 H6           3.8240     2.4710    -1.4130 ha         1 AN1       0.159000
     26 H7           4.4580     4.5430    -2.5120 ha         1 AN1       0.120000
     27 H8           5.6840     4.5420    -4.6340 ha         1 AN1       0.111000
     28 H9           6.3180     2.4690    -5.7320 ha         1 AN1       0.122000
     29 H10          3.8230    -2.4700    -1.4130 ha         1 AN1       0.159000
     30 H11          4.4580    -4.5430    -2.5100 ha         1 AN1       0.120000
     31 H12          5.6840    -4.5430    -4.6320 ha         1 AN1       0.111000
     32 H13          6.3190    -2.4710    -5.7320 ha         1 AN1       0.122000
     33 H14          7.6050     0.0250    -5.9220 hc         1 AN1       0.036367
     34 H15          6.2970    -0.8970    -6.6770 hc         1 AN1       0.036367
     35 H16          6.2590     0.8720    -6.6990 hc         1 AN1       0.036367
@<TRIPOS>BOND
     1     1     2 1
     2     2     3 1
     3     2     4 1
     4     4     5 1
     5     4    21 1
     6     4    22 1
     7     5     6 1
     8     5    23 1
     9     5    24 1
    10     6     7 ar
    11     6    15 ar
    12     7     8 ar
    13     7    12 ar
    14     8     9 ar
    15     8    25 1
    16     9    10 ar
    17     9    26 1
    18    10    11 ar
    19    10    27 1
    20    11    12 ar
    21    11    28 1
    22    12    13 ar
    23    13    14 ar
    24    13    20 1
    25    14    15 ar
    26    14    19 ar
    27    15    16 ar
    28    16    17 ar
    29    16    29 1
    30    17    18 ar
    31    17    30 1
    32    18    19 ar
    33    18    31 1
    34    19    32 1
    35    20    33 1
    36    20    34 1
    37    20    35 1
@<TRIPOS>SUBSTRUCTURE
     1 AN1         1 TEMP              0 ****  ****    0 ROOT
