@<TRIPOS>MOLECULE
AN2
   42    44     1     0     0
SMALL
bcc


@<TRIPOS>ATOM
      1 N3B          0.0000     0.0000     0.0000 nz         1 AN2      -0.173700
      2 PB           1.6830     0.0000     0.0000 p5         1 AN2       0.640700
      3 O2B          2.2190     0.0000     1.5190 o          1 AN2      -0.528500
      4 O1B          2.1760    -1.2080    -0.6970 o          1 AN2      -0.528500
      5 O3A          2.2210     1.3150    -0.7580 os         1 AN2      -0.486800
      6 PA           3.8280     1.2500    -0.7200 p5         1 AN2       0.907800
      7 O1A          4.3530     0.2520    -1.8710 o          1 AN2      -0.636500
      8 O2A          4.2710     0.7530     0.6030 o          1 AN2      -0.636500
      9 O5'          4.4320     2.7220    -0.9700 os         1 AN2      -0.472200
     10 C5'          5.8470     2.6210    -0.8080 c3         1 AN2       0.251400
     11 C4'          6.4860     3.9930    -1.0340 c3         1 AN2       0.150100
     12 O4'          6.0860     4.9100     0.0090 os         1 AN2      -0.375600
     13 C3'          8.0230     3.9010    -0.9090 c3         1 AN2       0.130100
     14 O3'          8.6250     3.8080    -2.2020 oh         1 AN2      -0.558800
     15 C2'          8.4240     5.2250    -0.2180 c3         1 AN2       0.120100
     16 O2'          9.2890     5.9880    -1.0620 oh         1 AN2      -0.549800
     17 C1'          7.0810     5.9570    -0.0040 c3         1 AN2       0.135800
     18 N9           7.0880     6.6700     1.2760 na         1 AN2       0.221000
     19 C8           6.6240     6.1950     2.4660 cc         1 AN2       0.280700
     20 N7           6.7850     7.0910     3.3960 nd         1 AN2      -0.523100
     21 C5           7.3650     8.1930     2.8640 ca         1 AN2      -0.223200
     22 C4           7.5610     7.9390     1.4960 ca         1 AN2       0.251800
     23 N3           8.1180     8.8780     0.7380 nb         1 AN2      -0.645000
     24 C2           8.4770    10.0330     1.2560 ca         1 AN2       0.655900
     25 N1           8.3080    10.3200     2.5330 nb         1 AN2      -0.736000
     26 C6           7.7590     9.4430     3.3690 ca         1 AN2       0.582200
     27 N6           7.5860     9.7540     4.7060 nv         1 AN2      -0.529500
     28 H3B1        -0.3340    -0.1370    -0.9340 hn         1 AN2       0.248800
     29 H3B2        -0.3340    -0.7400     0.5860 hn         1 AN2       0.248800
     30 H5'1         6.0730     2.2780     0.1940 h1         1 AN2       0.018700
     31 H5'2         6.2440     1.9150    -1.5290 h1         1 AN2       0.018700
     32 H4'          6.2110     4.3870    -2.0040 h1         1 AN2       0.039700
     33 H3'          8.3010     3.0550    -0.2930 h1         1 AN2       0.022700
     34 HA           9.1850     3.0500    -2.2340 ho         1 AN2       0.384000
     35 H2'          8.8980     5.0230     0.7350 h1         1 AN2       0.009700
     36 HB          10.1820     5.8720    -0.7830 ho         1 AN2       0.382000
     37 H1'          6.8930     6.6420    -0.8220 h2         1 AN2       0.062700
     38 H8           6.1870     5.2150     2.6160 h5         1 AN2       0.057800
     39 H2           8.9280    10.7760     0.6100 h5         1 AN2      -0.010900
     40 H6N1         7.3600    10.6900     4.9780 hn         1 AN2       0.271300
     41 H6N2         7.7120     9.0470     5.4040 hn         1 AN2       0.271300
     42 H3B3        -0.3340     0.8730     0.3590 hn         1 AN2       0.248800
@<TRIPOS>BOND
     1     1     2 1   
     2     1    28 1   
     3     1    29 1   
     4     1    42 1   
     5     2     3 1   
     6     2     4 1   
     7     2     5 1   
     8     5     6 1   
     9     6     7 1   
    10     6     8 1   
    11     6     9 1   
    12     9    10 1   
    13    10    11 1   
    14    10    30 1   
    15    10    31 1   
    16    11    12 1   
    17    11    13 1   
    18    11    32 1   
    19    12    17 1   
    20    13    14 1   
    21    13    15 1   
    22    13    33 1   
    23    14    34 1   
    24    15    16 1   
    25    15    17 1   
    26    15    35 1   
    27    16    36 1   
    28    17    18 1   
    29    17    37 1   
    30    18    19 1   
    31    18    22 1   
    32    19    20 2   
    33    19    38 1   
    34    20    21 1   
    35    21    22 ar  
    36    21    26 ar  
    37    22    23 ar  
    38    23    24 ar  
    39    24    25 ar  
    40    24    39 1   
    41    25    26 ar  
    42    26    27 1   
    43    27    40 1   
    44    27    41 1   
@<TRIPOS>SUBSTRUCTURE
     1 AN2         1 TEMP              0 ****  ****    0 ROOT
