@<TRIPOS>MOLECULE
molecule
   24    26     1     0     0
SMALL
bcc


@<TRIPOS>ATOM
      1 C1           0.0000     0.0000     0.0000 ca         1 AN3      -0.034000
      2 C2           1.4110     0.0000     0.0000 ca         1 AN3      -0.117000
      3 C3          -0.7040     0.0000     1.2860 ca         1 AN3      -0.034000
      4 C4           2.0820     0.0000     1.1800 ca         1 AN3      -0.125000
      5 C5           0.0560     0.0000     2.4750 ca         1 AN3      -0.117000
      6 C6           1.4120     0.0000     2.4040 ca         1 AN3      -0.125000
      7 C7          -4.8980     0.0000    -1.0510 ca         1 AN3      -0.125000
      8 C8          -4.2280     0.0000    -2.2750 ca         1 AN3      -0.125000
      9 C9          -4.2280     0.0000     0.1290 ca         1 AN3      -0.117000
     10 C10         -2.8720     0.0000    -2.3460 ca         1 AN3      -0.117000
     11 C11         -2.8160     0.0000     0.1290 ca         1 AN3      -0.034000
     12 C12         -2.1120     0.0000    -1.1570 ca         1 AN3      -0.034000
     13 C13         -0.7190     0.0010    -1.1940 ca         1 AN3      -0.105000
     14 C14         -2.0970     0.0000     1.3230 ca         1 AN3      -0.105000
     15 H2           1.9560    -0.0000    -0.9360 ha         1 AN3       0.133000
     16 H4           3.1650    -0.0000     1.1720 ha         1 AN3       0.127000
     17 H5          -0.4390     0.0000     3.4390 ha         1 AN3       0.133000
     18 H6           1.9890     0.0000     3.3210 ha         1 AN3       0.127000
     19 H7          -5.9820     0.0000    -1.0430 ha         1 AN3       0.127000
     20 H8          -4.8040     0.0000    -3.1930 ha         1 AN3       0.127000
     21 H9          -4.7730     0.0000     1.0650 ha         1 AN3       0.133000
     22 H10         -2.3770    -0.0000    -3.3090 ha         1 AN3       0.133000
     23 H13         -0.2020     0.1330    -2.1370 ha         1 AN3       0.137000
     24 H14         -2.6140    -0.1300     2.2660 ha         1 AN3       0.137000
@<TRIPOS>BOND
     1     1     2 ar
     2     1     3 ar
     3     1    13 ar
     4     2     4 ar
     5     2    15 1
     6     3     5 ar
     7     3    14 ar
     8     4     6 ar
     9     4    16 1
    10     5     6 ar
    11     5    17 1
    12     6    18 1
    13     7     8 ar
    14     7     9 ar
    15     7    19 1
    16     8    10 ar
    17     8    20 1
    18     9    11 ar
    19     9    21 1
    20    10    12 ar
    21    10    22 1
    22    11    12 ar
    23    11    14 ar
    24    12    13 ar
    25    13    23 1
    26    14    24 1
@<TRIPOS>SUBSTRUCTURE
     1 AN3         1 TEMP              0 ****  ****    0 ROOT
