@<TRIPOS>MOLECULE
AN3
   24    26     1     0     0
SMALL
bcc


@<TRIPOS>ATOM
      1 C1          0.0030    0.0080    0.0230 ca        1 AN3     -0.034000
      2 C2          1.4360    0.0150    0.0210 ca        1 AN3     -0.118000
      3 C3         -0.6830   -0.0070    1.2760 ca        1 AN3     -0.034000
      4 C4          2.1360    0.0080    1.1920 ca        1 AN3     -0.127000
      5 C5          0.0870   -0.0150    2.4840 ca        1 AN3     -0.118000
      6 C6          1.4510   -0.0080    2.4430 ca        1 AN3     -0.127000
      7 C7         -4.9520   -0.0070   -1.0630 ca        1 AN3     -0.127000
      8 C8         -4.2670    0.0080   -2.3140 ca        1 AN3     -0.127000
      9 C9         -4.2520   -0.0150    0.1080 ca        1 AN3     -0.118000
     10 C10        -2.9030    0.0150   -2.3550 ca        1 AN3     -0.118000
     11 C11        -2.8190   -0.0070    0.1060 ca        1 AN3     -0.034000
     12 C12        -2.1330    0.0080   -1.1470 ca        1 AN3     -0.034000
     13 C13        -0.7340    0.0150   -1.1670 ca        1 AN3     -0.107000
     14 C14        -2.0820   -0.0150    1.2960 ca        1 AN3     -0.107000
     15 H2          1.9520    0.0270   -0.9510 ha        1 AN3      0.132000
     16 H4          3.2360    0.0130    1.1940 ha        1 AN3      0.132000
     17 H5         -0.4540   -0.0270    3.4430 ha        1 AN3      0.132000
     18 H6          2.0460   -0.0130    3.3680 ha        1 AN3      0.132000
     19 H7         -6.0520   -0.0130   -1.0650 ha        1 AN3      0.132000
     20 H8         -4.8620    0.0130   -3.2390 ha        1 AN3      0.132000
     21 H9         -4.7680   -0.0260    1.0800 ha        1 AN3      0.132000
     22 H10        -2.3630    0.0270   -3.3140 ha        1 AN3      0.132000
     23 H13        -0.2050    0.0270   -2.1320 ha        1 AN3      0.134000
     24 H14        -2.6110   -0.0270    2.2610 ha        1 AN3      0.134000
@<TRIPOS>BOND
     1    1    2 ar  
     2    1    3 ar  
     3    1   13 ar  
     4    2    4 ar  
     5    2   15 1   
     6    3    5 ar  
     7    3   14 ar  
     8    4    6 ar  
     9    4   16 1   
    10    5    6 ar  
    11    5   17 1   
    12    6   18 1   
    13    7    8 ar  
    14    7    9 ar  
    15    7   19 1   
    16    8   10 ar  
    17    8   20 1   
    18    9   11 ar  
    19    9   21 1   
    20   10   12 ar  
    21   10   22 1   
    22   11   12 ar  
    23   11   14 ar  
    24   12   13 ar  
    25   13   23 1   
    26   14   24 1   
@<TRIPOS>SUBSTRUCTURE
     1 AN3         1 TEMP              0 ****  ****    0 ROOT
