@<TRIPOS>MOLECULE
AN4
   24    25     1     0     0
SMALL
bcc


@<TRIPOS>ATOM
      1 N1           0.0000     0.0000     0.0000 n2         1 AN4      -0.526900
      2 C5           1.4560     0.0000     0.0000 c3         1 AN4       0.160800
      3 C4           1.9930     0.0000     1.4330 c3         1 AN4      -0.062400
      4 C3           1.2790    -1.1090     2.2170 c3         1 AN4      -0.025400
      5 C2          -0.2010    -0.7350     2.3370 c3         1 AN4      -0.093700
      6 C1          -0.7320    -0.3180     0.9950 ce         1 AN4       0.433900
      7 N2          -4.3560    -0.5740     1.7080 nb         1 AN4      -0.587000
      8 C7          -2.7530     0.1060    -0.4120 ca         1 AN4      -0.032000
      9 C8          -4.1320     0.1300    -0.5270 ca         1 AN4      -0.230300
     10 C9          -4.9080    -0.2190     0.5640 ca         1 AN4       0.408200
     11 C10         -3.0500    -0.6120     1.8670 ca         1 AN4       0.407200
     12 C70         -2.1970    -0.2750     0.8170 ca         1 AN4      -0.264200
     13 H51C         1.8120    -0.8850    -0.5140 h1         1 AN4       0.027200
     14 H52C         1.8120     0.8850    -0.5130 h1         1 AN4       0.027200
     15 H21C        -0.7600    -1.5920     2.6930 hc         1 AN4       0.033200
     16 H22C        -0.3080     0.0870     3.0350 hc         1 AN4       0.033200
     17 H31C         1.7140    -1.1930     3.2060 hc         1 AN4       0.019700
     18 H32C         1.3760    -2.0490     1.6880 hc         1 AN4       0.019700
     19 H41C         1.7940     0.9590     1.8950 hc         1 AN4       0.022700
     20 H42C         3.0590    -0.1910     1.4210 hc         1 AN4       0.022700
     21 H10         -2.6330    -0.9090     2.8230 h4         1 AN4      -0.015900
     22 H7          -2.1200     0.3740    -1.2490 ha         1 AN4       0.130000
     23 H8          -4.5980     0.4190    -1.4610 ha         1 AN4       0.113000
     24 H9          -5.9880    -0.2010     0.4760 h4         1 AN4      -0.022900
@<TRIPOS>BOND
     1     1     2 1   
     2     1     6 2   
     3     2     3 1   
     4     2    13 1   
     5     2    14 1   
     6     3     4 1   
     7     3    19 1   
     8     3    20 1   
     9     4     5 1   
    10     4    17 1   
    11     4    18 1   
    12     5     6 1   
    13     5    15 1   
    14     5    16 1   
    15     6    12 1   
    16     7    10 ar  
    17     7    11 ar  
    18     8     9 ar  
    19     8    12 ar  
    20     8    22 1   
    21     9    10 ar  
    22     9    23 1   
    23    10    24 1   
    24    11    12 ar  
    25    11    21 1   
@<TRIPOS>SUBSTRUCTURE
     1 AN4         1 TEMP              0 ****  ****    0 ROOT
