@<TRIPOS>MOLECULE
molecule
   24    25     1     0     0
SMALL
bcc


@<TRIPOS>ATOM
      1 N1           0.0000     0.0000     0.0000 n2         1 AN4      -0.621900
      2 C5           1.4560     0.0000     0.0000 c3         1 AN4       0.126800
      3 C4           1.9930     0.0000     1.4330 c3         1 AN4      -0.120400
      4 C3           1.2790    -1.1090     2.2170 c3         1 AN4      -0.081400
      5 C2          -0.2010    -0.7350     2.3370 c3         1 AN4      -0.169700
      6 C1          -0.7320    -0.3180     0.9950 ce         1 AN4       0.482900
      7 N2          -4.3560    -0.5740     1.7080 nb         1 AN4      -0.694000
      8 C7          -2.7530     0.1060    -0.4120 ca         1 AN4      -0.052000
      9 C8          -4.1320     0.1300    -0.5270 ca         1 AN4      -0.264300
     10 C9          -4.9080    -0.2190     0.5640 ca         1 AN4       0.425200
     11 C10         -3.0500    -0.6120     1.8670 ca         1 AN4       0.430200
     12 C70         -2.1970    -0.2750     0.8170 ca         1 AN4      -0.262200
     13 H51C         1.8120    -0.8850    -0.5140 h1         1 AN4       0.065200
     14 H52C         1.8120     0.8850    -0.5130 h1         1 AN4       0.065200
     15 H21C        -0.7600    -1.5920     2.6930 hc         1 AN4       0.061200
     16 H22C        -0.3080     0.0870     3.0350 hc         1 AN4       0.061200
     17 H31C         1.7140    -1.1930     3.2060 hc         1 AN4       0.049200
     18 H32C         1.3760    -2.0490     1.6880 hc         1 AN4       0.049200
     19 H41C         1.7940     0.9590     1.8950 hc         1 AN4       0.050200
     20 H42C         3.0590    -0.1910     1.4210 hc         1 AN4       0.050200
     21 H10         -2.6330    -0.9090     2.8230 h4         1 AN4       0.024100
     22 H7          -2.1200     0.3740    -1.2490 ha         1 AN4       0.162000
     23 H8          -4.5980     0.4190    -1.4610 ha         1 AN4       0.140000
     24 H9          -5.9880    -0.2010     0.4760 h4         1 AN4       0.022100
@<TRIPOS>BOND
     1     1     6 2
     2     1     2 1
     3     6     5 1
     4     6    12 1
     5     5     4 1
     6     4     3 1
     7     3     2 1
     8     7    10 ar
     9     7    11 ar
    10     8     9 ar
    11     8    12 ar
    12     9    10 ar
    13    11    12 ar
    14     2    13 1
    15     2    14 1
    16     5    15 1
    17     5    16 1
    18     4    17 1
    19     4    18 1
    20     3    19 1
    21     3    20 1
    22    10    24 1
    23    11    21 1
    24     8    22 1
    25     9    23 1
@<TRIPOS>SUBSTRUCTURE
     1 AN4         1 TEMP              0 ****  ****    0 ROOT
