@<TRIPOS>MOLECULE
molecule
   28    28     1     0     0
SMALL
bcc


@<TRIPOS>ATOM
      1 C11          0.0000     0.0000     0.0000 ca         1 AN5      -0.025000
      2 C12          1.3830     0.0000     0.0000 ca         1 AN5      -0.260300
      3 C13          2.0610     0.0000     1.2060 ca         1 AN5       0.459200
      4 N11          1.4110    -0.0000     2.3540 nb         1 AN5      -0.691000
      5 C14          0.0960    -0.0000     2.4100 ca         1 AN5       0.455200
      6 C15         -0.6640     0.0000     1.2360 ca         1 AN5      -0.319900
      7 C16         -2.1340     0.0010     1.2950 c          1 AN5       0.587700
      8 C17         -2.8340     0.0000     2.6300 c3         1 AN5      -0.180400
      9 C18         -4.3480    -0.0000     2.4120 c3         1 AN5      -0.065400
     10 O11         -2.7840    -0.0000     0.2710 o          1 AN5      -0.523100
     11 C10         -6.5730     0.0010     3.5490 c3         1 AN5       0.091800
     12 N12         -7.2550     0.0000     4.8500 nz         1 AN5      -0.811600
     13 C1          -5.0590    -0.0000     3.7670 c3         1 AN5      -0.114400
     14 H11         -0.5420     0.2430    -0.9060 ha         1 AN5       0.164000
     15 H12          1.9250    -0.1530    -0.9260 ha         1 AN5       0.156000
     16 H13          3.1440     0.0000     1.2080 h4         1 AN5       0.038100
     17 H14         -0.4020     0.0000     3.3720 h4         1 AN5       0.016100
     18 H171        -2.5490    -0.8840     3.1870 hc         1 AN5       0.072700
     19 H172        -2.5490     0.8850     3.1870 hc         1 AN5       0.072700
     20 H181        -4.6330     0.8840     1.8550 hc         1 AN5       0.072700
     21 H182        -4.6330    -0.8850     1.8550 hc         1 AN5       0.072700
     22 H11C        -4.7750    -0.8850     4.3240 hc         1 AN5       0.064200
     23 H12C        -4.7740     0.8840     4.3240 hc         1 AN5       0.064200
     24 H101        -6.8360    -0.8980     3.0040 hx         1 AN5       0.115200
     25 H102        -6.8800     0.8710     2.9810 hx         1 AN5       0.115200
     26 H121        -6.9920    -0.8170     5.3640 hn         1 AN5       0.457133
     27 H122        -8.2460     0.0010     4.7070 hn         1 AN5       0.457133
     28 H123        -6.9920     0.8170     5.3650 hn         1 AN5       0.457133
@<TRIPOS>BOND
     1     1     2 ar
     2     1     6 ar
     3     2     3 ar
     4     3     4 ar
     5     4     5 ar
     6     5     6 ar
     7     6     7 1
     8     7     8 1
     9     7    10 2
    10     8     9 1
    11     9    13 1
    12    11    12 1
    13    11    13 1
    14     1    14 1
    15     2    15 1
    16     3    16 1
    17     5    17 1
    18     8    18 1
    19     8    19 1
    20     9    20 1
    21     9    21 1
    22    13    22 1
    23    13    23 1
    24    11    24 1
    25    11    25 1
    26    12    26 1
    27    12    27 1
    28    28    12 1
@<TRIPOS>SUBSTRUCTURE
     1 AN5         1 TEMP              0 ****  ****    0 ROOT
