@<TRIPOS>MOLECULE
AN7
   30    30     1     0     0
SMALL
bcc


@<TRIPOS>ATOM
      1 CAA         0.2790   -0.9480   -0.1770 c3        1 AN7     -0.106400
      2 OAB         0.0830   -0.7210   -5.6240 o         1 AN7     -0.833300
      3 OAC         2.5330   -2.7000   -4.8010 o         1 AN7     -0.561100
      4 OAD         8.0640   -0.5540   -1.0090 o         1 AN7     -0.931500
      5 OAE         1.1840   -1.5660   -7.3770 o         1 AN7     -0.833300
      6 OAF         0.7390   -0.3730   -2.7650 oh        1 AN7     -0.524100
      7 OAG         8.1070    1.1320    0.9110 o         1 AN7     -0.931500
      8 OAH         8.5020    1.9050   -1.4920 o         1 AN7     -0.931500
      9 CAI         3.1350   -0.3870   -4.9900 ce        1 AN7     -0.259200
     10 CAJ         3.4670    0.2540   -3.8650 cf        1 AN7     -0.052200
     11 CAK         3.8760   -0.1670   -0.1510 ca        1 AN7      0.366200
     12 CAL         5.6190    0.5170   -1.8190 c3        1 AN7      0.239700
     13 NAM         2.6640   -0.5140    0.2920 nb        1 AN7     -0.681000
     14 OAN         6.2020    1.1350   -0.7430 os        1 AN7     -0.567200
     15 CAO         1.0900   -1.2720   -6.1530 c         1 AN7      0.844600
     16 CAP         2.2900   -1.5690   -5.2370 c         1 AN7      0.457300
     17 CAQ         1.6610   -0.5970   -0.6170 ca        1 AN7      0.294600
     18 CAR         1.8770   -0.3440   -1.9990 ca        1 AN7      0.036800
     19 CAS         4.2000    0.0980   -1.5080 ca        1 AN7     -0.100600
     20 CAT         3.1750   -0.0260   -2.4680 ca        1 AN7     -0.137800
     21 PAU         7.9210    0.8760   -0.5590 p5        1 AN7      1.314900
     22 HAA        -0.1320   -1.7410   -0.8510 hc        1 AN7      0.022033
     23 HAAA       -0.3780   -0.0480   -0.2640 hc        1 AN7      0.022033
     24 HAAB        0.2490   -1.3140    0.8770 hc        1 AN7      0.022033
     25 HOAF        0.9700   -0.3230   -3.7110 ho        1 AN7      0.458000
     26 HAI         3.4960    0.0320   -5.9500 ha        1 AN7      0.122000
     27 HAJ         4.1020    1.1600   -3.9800 ha        1 AN7      0.128000
     28 HAK         4.6840   -0.0630    0.6030 h4        1 AN7      0.067100
     29 HAL         5.5730    1.2240   -2.7050 h1        1 AN7      0.027200
     30 HALA        6.2130   -0.4020   -2.1150 h1        1 AN7      0.027200
@<TRIPOS>BOND
     1    1   17 1   
     2    1   22 1   
     3    1   23 1   
     4    1   24 1   
     5    2   15 1   
     6    3   16 2   
     7    4   21 1   
     8    5   15 1   
     9    6   18 1   
    10    6   25 1   
    11    7   21 1   
    12    8   21 1   
    13    9   10 2   
    14    9   16 1   
    15    9   26 1   
    16   10   20 1   
    17   10   27 1   
    18   11   13 ar  
    19   11   19 ar  
    20   11   28 1   
    21   12   14 1   
    22   12   19 1   
    23   12   29 1   
    24   12   30 1   
    25   13   17 ar  
    26   14   21 1   
    27   15   16 1   
    28   17   18 ar  
    29   18   20 ar  
    30   19   20 ar  
@<TRIPOS>SUBSTRUCTURE
     1 AN7         1 TEMP              0 ****  ****    0 ROOT
