@<TRIPOS>MOLECULE
molecule
   30    30     1     0     0
SMALL
bcc


@<TRIPOS>ATOM
      1 CAA          0.0000     0.0000     0.0000 c3         1 AN7      -0.124400
      2 OAB          1.6170    -2.7030    -6.4030 o          1 AN7      -0.837800
      3 OAC          3.8490    -0.1030    -6.3860 o          1 AN7      -0.550100
      4 OAD          8.3720    -1.1480    -1.4620 o          1 AN7      -0.910833
      5 OAE          2.7040    -1.9020    -8.1610 o          1 AN7      -0.837800
      6 OAF          0.6510    -0.0030    -2.7500 oh         1 AN7      -0.509100
      7 OAG          8.5090    -0.1350     0.8450 o          1 AN7      -0.910833
      8 OAH          8.4240     1.3710    -1.3090 o          1 AN7      -0.910833
      9 CAI          2.7460    -0.9070    -4.5620 ce         1 AN7      -0.214200
     10 CAJ          3.3340    -0.0060    -3.7360 cf         1 AN7      -0.077200
     11 CAK          3.6790     0.0000     0.0000 ca         1 AN7       0.429200
     12 CAL          5.4770    -0.0030    -1.7450 c3         1 AN7       0.248700
     13 NAM          2.4140     0.0000     0.3740 nb         1 AN7      -0.721000
     14 OAN          6.3040    -0.0020    -0.5790 os         1 AN7      -0.588200
     15 CAO          2.4090    -1.9000    -6.8480 c          1 AN7       0.812600
     16 CAP          3.0560    -0.9090    -5.9400 c          1 AN7       0.462300
     17 CAQ          1.4240     0.0000    -0.4940 ca         1 AN7       0.338600
     18 CAR          1.6750    -0.0020    -1.8600 ca         1 AN7      -0.031200
     19 CAS          4.0280    -0.0020    -1.3340 ca         1 AN7      -0.141600
     20 CAT          3.0120    -0.0030    -2.3030 ca         1 AN7      -0.061800
     21 PAU          7.9120    -0.0030    -0.6440 p5         1 AN7       1.182900
     22 HAA         -0.0080    -0.0970     1.0790 hc         1 AN7       0.028033
     23 HAAA        -0.5350    -0.8320    -0.4410 hc         1 AN7       0.028033
     24 HAAB        -0.4800     0.9290    -0.2820 hc         1 AN7       0.028033
     25 HOAF         0.2760     0.8600    -2.7990 ho         1 AN7       0.392000
     26 HAI          2.0390    -1.6250    -4.1650 ha         1 AN7       0.152000
     27 HAJ          4.0410     0.7120    -4.1330 ha         1 AN7       0.157000
     28 HAK          4.4570    -0.0000     0.7540 h4         1 AN7       0.074100
     29 HAL          5.6850    -0.8890    -2.3340 h1         1 AN7       0.046200
     30 HALA         5.6860     0.8800    -2.3360 h1         1 AN7       0.046200
@<TRIPOS>BOND
     1     1    17 1
     2     2    15 1
     3     3    16 2
     4     4    21 1
     5     5    15 1
     6     6    18 1
     7     7    21 1
     8     8    21 1
     9     9    10 2
    10     9    16 1
    11    10    20 1
    12    11    13 ar
    13    11    19 ar
    14    12    14 1
    15    12    19 1
    16    13    17 ar
    17    14    21 1
    18    15    16 1
    19    17    18 ar
    20    18    20 ar
    21    19    20 ar
    22     1    22 1
    23     1    23 1
    24     1    24 1
    25     6    25 1
    26     9    26 1
    27    10    27 1
    28    11    28 1
    29    12    29 1
    30    12    30 1
@<TRIPOS>SUBSTRUCTURE
     1 AN7         1 TEMP              0 ****  ****    0 ROOT
