@<TRIPOS>MOLECULE
AN9
   72    74     1     0     0
SMALL
bcc


@<TRIPOS>ATOM
      1 O19          0.0000     0.0000     0.0000 o          1 AN9      -0.607600
      2 C18          1.2270     0.0000     0.0000 c          1 AN9       0.600600
      3 C20          2.0320     0.0000     1.2950 c3         1 AN9      -0.129900
      4 N17          2.0810     0.0120    -1.0970 ns         1 AN9      -0.084100
      5 C14          1.6950     0.0160    -2.4410 ca         1 AN9      -0.016900
      6 C13          0.4880    -0.6160    -2.7460 ca         1 AN9      -0.125500
      7 C12          0.0330    -0.6540    -4.0630 ca         1 AN9      -0.057000
      8 C3           2.4490     0.6110    -3.4590 ca         1 AN9      -0.177600
      9 C2           1.9930     0.5710    -4.7780 ca         1 AN9      -0.116600
     10 C37          0.7820    -0.0630    -5.0790 ca         1 AN9      -0.075500
     11 C1           2.7800     1.1960    -5.8620 c          1 AN9       0.664300
     12 O15          2.3490     1.1400    -7.0070 o          1 AN9      -0.585100
     13 C6           4.0560     1.8610    -5.5290 ca         1 AN9      -0.177600
     14 C11          4.5130     1.9010    -4.2100 ca         1 AN9      -0.116600
     15 C10          5.7240     2.5350    -3.9090 ca         1 AN9      -0.075500
     16 C4           3.7250     1.2760    -3.1260 c          1 AN9       0.664300
     17 O16          4.1580     1.3300    -1.9820 o          1 AN9      -0.585100
     18 C7           4.8110     2.4570    -6.5470 ca         1 AN9      -0.016900
     19 N27          4.4240     2.4600    -7.8910 ns         1 AN9      -0.084100
     20 C8           6.0180     3.0870    -6.2420 ca         1 AN9      -0.125500
     21 C9           6.4730     3.1270    -4.9250 ca         1 AN9      -0.057000
     22 C5           4.7310     3.4420    -8.8280 c          1 AN9       0.600600
     23 O1           5.3760     4.4710    -8.6580 o          1 AN9      -0.607600
     24 C15          4.1270     3.0830   -10.1820 c3         1 AN9      -0.129900
     25 C16          4.4170     4.1080   -11.2700 c3         1 AN9       0.158800
     26 N1           3.8170     3.7510   -12.5280 n3         1 AN9      -0.537600
     27 C17          4.1090     4.7540   -13.5640 c3         1 AN9       0.141800
     28 C19          5.5770     4.9500   -13.7250 c3         1 AN9      -0.006100
     29 C21          2.3610     3.5860   -12.4000 c3         1 AN9       0.141800
     30 C22          1.7550     3.1330   -13.6840 c3         1 AN9      -0.006100
     31 C23          1.1710    -0.0130     2.5510 c3         1 AN9       0.158800
     32 N2           1.9610     0.0070     3.7530 n3         1 AN9      -0.537600
     33 C24          1.1100    -0.0050     4.9530 c3         1 AN9       0.141800
     34 C25          0.1950    -1.1820     4.9510 c3         1 AN9      -0.006100
     35 C26          2.8480     1.1810     3.7920 c3         1 AN9       0.141800
     36 C27          3.7240     1.1530     4.9970 c3         1 AN9      -0.006100
     37 H201         2.6710    -0.8750     1.3050 hc         1 AN9       0.041950
     38 H202         2.6570     0.8850     1.3130 hc         1 AN9       0.041950
     39 H17          3.0640     0.0170    -0.9070 hn         1 AN9       0.210000
     40 H13         -0.0960    -1.0760    -1.9580 ha         1 AN9       0.145000
     41 H12         -0.9040    -1.1450    -4.2970 ha         1 AN9       0.110000
     42 H37          0.4270    -0.0930    -6.1020 ha         1 AN9       0.128000
     43 H10          6.0790     2.5670    -2.8860 ha         1 AN9       0.128000
     44 H27          3.8690     1.6900    -8.2060 hn         1 AN9       0.210000
     45 H8           6.6020     3.5470    -7.0300 ha         1 AN9       0.145000
     46 H9           7.4100     3.6170    -4.6910 ha         1 AN9       0.110000
     47 H151         3.0530     2.9930   -10.0680 hc         1 AN9       0.041950
     48 H152         4.5240     2.1250   -10.4940 hc         1 AN9       0.041950
     49 H161         5.4890     4.1860   -11.4030 h1         1 AN9       0.022700
     50 H162         4.0300     5.0710   -10.9580 h1         1 AN9       0.022700
     51 H171         3.6890     4.4230   -14.5060 h1         1 AN9       0.010700
     52 H172         3.6530     5.6960   -13.2840 h1         1 AN9       0.010700
     53 H191         5.7840     5.3290   -14.7190 hc         1 AN9       0.009033
     54 H192         6.0850     4.0030   -13.5870 hc         1 AN9       0.009033
     55 H193         5.9300     5.6600   -12.9870 hc         1 AN9       0.009033
     56 H211         2.1530     2.8510   -11.6310 h1         1 AN9       0.010700
     57 H212         1.9200     4.5330   -12.1140 h1         1 AN9       0.010700
     58 H221         1.5420     3.9940   -14.3060 hc         1 AN9       0.009033
     59 H222         0.8360     2.5980   -13.4810 hc         1 AN9       0.009033
     60 H223         2.4480     2.4780   -14.1990 hc         1 AN9       0.009033
     61 H231         0.5590    -0.9060     2.5480 h1         1 AN9       0.022700
     62 H232         0.5240     0.8560     2.5420 h1         1 AN9       0.022700
     63 H241         1.7390    -0.0450     5.8340 h1         1 AN9       0.010700
     64 H242         0.5200     0.9040     4.9790 h1         1 AN9       0.010700
     65 H251        -0.0930    -1.4160     5.9690 hc         1 AN9       0.009033
     66 H252         0.7030    -2.0330     4.5150 hc         1 AN9       0.009033
     67 H253        -0.6890    -0.9510     4.3690 hc         1 AN9       0.009033
     68 H261         2.2450     2.0810     3.8120 h1         1 AN9       0.010700
     69 H262         3.4660     1.1880     2.9020 h1         1 AN9       0.010700
     70 H271         3.9810     0.1270     5.2330 hc         1 AN9       0.009033
     71 H272         4.6290     1.7150     4.7980 hc         1 AN9       0.009033
     72 H273         3.2010     1.5970     5.8350 hc         1 AN9       0.009033
@<TRIPOS>BOND
     1     1     2 2   
     2     2     3 1   
     3     2     4 1   
     4     3    31 1   
     5     3    37 1   
     6     3    38 1   
     7     4     5 1   
     8     4    39 1   
     9     5     6 ar  
    10     5     8 ar  
    11     6     7 ar  
    12     6    40 1   
    13     7    10 ar  
    14     7    41 1   
    15     8     9 ar  
    16     8    16 1   
    17     9    10 ar  
    18     9    11 1   
    19    10    42 1   
    20    11    12 2   
    21    11    13 1   
    22    13    14 ar  
    23    13    18 ar  
    24    14    15 ar  
    25    14    16 1   
    26    15    21 ar  
    27    15    43 1   
    28    16    17 2   
    29    18    19 1   
    30    18    20 ar  
    31    19    22 1   
    32    19    44 1   
    33    20    21 ar  
    34    20    45 1   
    35    21    46 1   
    36    22    23 2   
    37    22    24 1   
    38    24    25 1   
    39    24    47 1   
    40    24    48 1   
    41    25    26 1   
    42    25    49 1   
    43    25    50 1   
    44    26    27 1   
    45    26    29 1   
    46    27    28 1   
    47    27    51 1   
    48    27    52 1   
    49    28    53 1   
    50    28    54 1   
    51    28    55 1   
    52    29    30 1   
    53    29    56 1   
    54    29    57 1   
    55    30    58 1   
    56    30    59 1   
    57    30    60 1   
    58    31    32 1   
    59    31    61 1   
    60    31    62 1   
    61    32    33 1   
    62    32    35 1   
    63    33    34 1   
    64    33    63 1   
    65    33    64 1   
    66    34    65 1   
    67    34    66 1   
    68    34    67 1   
    69    35    36 1   
    70    35    68 1   
    71    35    69 1   
    72    36    70 1   
    73    36    71 1   
    74    36    72 1   
@<TRIPOS>SUBSTRUCTURE
     1 AN9         1 TEMP              0 ****  ****    0 ROOT
