@<TRIPOS>MOLECULE
ANA
   47    47     1     0     0
SMALL
bcc


@<TRIPOS>ATOM
      1 C1           1.5060     0.0000     0.0000 c          1 ANA       0.924600
      2 C2           0.0000     0.0000     0.0000 c3         1 ANA       0.249600
      3 C3          -0.5100     0.0000     1.4420 c3         1 ANA      -0.056400
      4 C4           0.0320     1.2390     2.1640 c3         1 ANA       0.171100
      5 C5          -0.3320     2.4810     1.3430 c3         1 ANA      -0.035300
      6 C6           0.1640     2.2940    -0.0910 c3         1 ANA       0.121100
      7 C7          -0.1660     3.5430    -0.9110 c3         1 ANA       0.189100
      8 C8           0.3280     3.3570    -2.3460 c3         1 ANA       0.162100
      9 C9          -0.0000     4.6070    -3.1660 c3         1 ANA       0.172400
     10 C11          0.3130     5.5870     3.4850 c3         1 ANA      -0.072100
     11 CM4         -0.5820     0.8360     5.9030 c3         1 ANA      -0.038100
     12 N5           0.3040     3.6610     1.9330 ns         1 ANA      -0.176900
     13 O1A          2.1100     0.6240    -0.8400 o          1 ANA      -0.860800
     14 O1B          2.1770    -0.6920     0.9330 o          1 ANA      -0.860800
     15 O2          -0.4750    -1.1690    -0.6720 os         1 ANA      -0.388600
     16 O4          -0.5620     1.3310     3.4850 os         1 ANA      -0.403900
     17 O6          -0.4740     1.1620    -0.6790 os         1 ANA      -0.390600
     18 O7          -1.5800     3.7490    -0.9170 oh         1 ANA      -0.571800
     19 O8           1.7430     3.1510    -2.3400 oh         1 ANA      -0.556800
     20 O9           0.4610     4.4340    -4.5060 oh         1 ANA      -0.594800
     21 O10         -1.4480     4.0380     3.2390 o          1 ANA      -0.652100
     22 OA4          1.0650     0.1310     4.3750 o          1 ANA      -0.566000
     23 H31         -0.1630    -0.8930     1.9480 hc         1 ANA       0.038700
     24 H32         -1.5930     0.0260     1.4430 hc         1 ANA       0.038700
     25 H4           1.1090     1.1650     2.2490 h1         1 ANA       0.080700
     26 H5          -1.4070     2.6070     1.3380 h1         1 ANA       0.078700
     27 H6           1.2360     2.1360    -0.0820 h1         1 ANA       0.121700
     28 H7           0.3220     4.4040    -0.4700 h1         1 ANA      -0.004300
     29 H8          -0.1600     2.4970    -2.7880 h1         1 ANA       0.045700
     30 H91          0.4890     5.4670    -2.7240 h1         1 ANA      -0.012800
     31 H92         -1.0720     4.7650    -3.1700 h1         1 ANA      -0.012800
     32 H111        -0.2500     5.9050     4.3540 hc         1 ANA       0.015033
     33 H112         1.3270     5.3440     3.7800 hc         1 ANA       0.015033
     34 H113         0.3330     6.3870     2.7550 hc         1 ANA       0.015033
     35 H121         1.0580    -0.9920    -2.0390 h1         1 ANA      -0.001633
     36 H122        -0.3180    -1.9730    -2.5630 h1         1 ANA      -0.001633
     37 H123        -0.4620    -0.2110    -2.4970 h1         1 ANA      -0.001633
     38 HM41        -0.5140    -0.1260     6.3970 hc         1 ANA       0.018367
     39 HM42        -0.0470     1.5780     6.4840 hc         1 ANA       0.018367
     40 HM43        -1.6220     1.1260     5.8180 hc         1 ANA       0.018367
     41 HN5          1.2290     3.9220     1.6560 hn         1 ANA       0.175500
     42 HO7         -1.7650     4.6640    -0.7870 ho         1 ANA       0.370000
     43 HO8          2.0460     3.0270    -3.2240 ho         1 ANA       0.397000
     44 HO9          0.1640     5.1540    -5.0370 ho         1 ANA       0.381000
     45 C10         -0.3420     4.3730     2.8780 c          1 ANA       0.561100
     46 C12         -0.0220    -1.0810    -2.0250 c3         1 ANA       0.208700
     47 CA4          0.0330     0.7410     4.5320 c          1 ANA       0.673100
@<TRIPOS>BOND
     1     1     2 1   
     2     1    13 1   
     3     1    14 1   
     4     2     3 1   
     5     2    15 1   
     6     2    17 1   
     7     3     4 1   
     8     3    23 1   
     9     3    24 1   
    10     4     5 1   
    11     4    16 1   
    12     4    25 1   
    13     5     6 1   
    14     5    12 1   
    15     5    26 1   
    16     6     7 1   
    17     6    17 1   
    18     6    27 1   
    19     7     8 1   
    20     7    18 1   
    21     7    28 1   
    22     8     9 1   
    23     8    19 1   
    24     8    29 1   
    25     9    20 1   
    26     9    30 1   
    27     9    31 1   
    28    10    32 1   
    29    10    33 1   
    30    10    34 1   
    31    10    45 1   
    32    11    38 1   
    33    11    39 1   
    34    11    40 1   
    35    11    47 1   
    36    12    41 1   
    37    12    45 1   
    38    15    46 1   
    39    16    47 1   
    40    18    42 1   
    41    19    43 1   
    42    20    44 1   
    43    21    45 2   
    44    22    47 2   
    45    35    46 1   
    46    36    46 1   
    47    37    46 1   
@<TRIPOS>SUBSTRUCTURE
     1 ANA         1 TEMP              0 ****  ****    0 ROOT
