@<TRIPOS>MOLECULE
ANB
   45    48     1     0     0
SMALL
bcc


@<TRIPOS>ATOM
      1 C1         -0.0270   -0.0220    0.0590 c2        1 ANB     -0.104200
      2 C10         1.4690    0.1000    0.0070 c3        1 ANB      0.004400
      3 C11         1.4760   -1.0660   -2.2670 c3        1 ANB     -0.076400
      4 C12         2.0900   -2.1190   -3.1780 c3        1 ANB     -0.056400
      5 C13         3.6030   -2.0280   -3.1610 c3        1 ANB     -0.153000
      6 C14         4.0590   -2.1900   -1.6930 c3        1 ANB     -0.064700
      7 C15         5.5460   -2.5150   -1.7900 c3        1 ANB     -0.072400
      8 C16         5.6570   -3.3730   -3.0540 c3        1 ANB     -0.188400
      9 C17         4.3800   -3.1510   -3.8410 c         1 ANB      0.577100
     10 C18         4.0710   -0.7370   -3.8200 c3        1 ANB     -0.083100
     11 C19         1.7790    1.4800   -0.5790 c3        1 ANB     -0.082100
     12 C2         -0.7430   -0.1170    1.1850 ce        1 ANB     -0.240200
     13 C3         -0.1110   -0.1250    2.5140 c         1 ANB      0.561500
     14 C4          1.3580   -0.0840    2.5100 ce        1 ANB     -0.249200
     15 C5          2.0840    0.0060    1.3830 c2        1 ANB     -0.041400
     16 C6          3.5740   -0.0020    1.4280 c3        1 ANB     -0.052200
     17 C7          4.1280   -1.1160    0.5640 c3        1 ANB     -0.072400
     18 C8          3.5870   -1.0220   -0.8530 c3        1 ANB     -0.048700
     19 C9          2.0480   -1.0500   -0.8530 c3        1 ANB     -0.042700
     20 O1         -0.7700   -0.1700    3.5610 o         1 ANB     -0.532100
     21 O2          4.0480   -3.7640   -4.8510 o         1 ANB     -0.516100
     22 HC1        -0.5300    0.0090   -0.9220 ha        1 ANB      0.133000
     23 H111        1.6060   -0.0550   -2.7350 hc        1 ANB      0.044700
     24 H112        0.3740   -1.2700   -2.2130 hc        1 ANB      0.044700
     25 H121        1.7730   -3.1420   -2.8450 hc        1 ANB      0.054200
     26 H122        1.7100   -1.9740   -4.2230 hc        1 ANB      0.054200
     27 HC41        3.5560   -3.1160   -1.2840 hc        1 ANB      0.054700
     28 H151        6.1570   -1.5840   -1.8830 hc        1 ANB      0.050200
     29 H152        5.8990   -3.0700   -0.8880 hc        1 ANB      0.050200
     30 H161        5.7590   -4.4580   -2.8000 hc        1 ANB      0.076200
     31 H162        6.5400   -3.0790   -3.6740 hc        1 ANB      0.076200
     32 H181        5.1760   -0.6190   -3.7080 hc        1 ANB      0.044033
     33 H182        3.8200   -0.7630   -4.9080 hc        1 ANB      0.044033
     34 H183        3.5740    0.1530   -3.3660 hc        1 ANB      0.044033
     35 H191        1.4640    2.2750    0.1390 hc        1 ANB      0.044700
     36 H192        2.8710    1.5920   -0.7770 hc        1 ANB      0.044700
     37 H193        1.2250    1.6280   -1.5370 hc        1 ANB      0.044700
     38 HC2        -1.8420   -0.1870    1.1740 ha        1 ANB      0.151000
     39 HC4         1.8360   -0.1430    3.5020 ha        1 ANB      0.150000
     40 HC61        3.9360   -0.1320    2.4830 hc        1 ANB      0.056200
     41 HC62        3.9560    0.9900    1.0640 hc        1 ANB      0.056200
     42 HC71        3.8580   -2.1100    1.0080 hc        1 ANB      0.048700
     43 HC72        5.2480   -1.0520    0.5380 hc        1 ANB      0.048700
     44 HC8         3.9490   -0.0610   -1.3090 hc        1 ANB      0.057700
     45 HC9         1.7320   -2.0110   -0.3520 hc        1 ANB      0.058700
@<TRIPOS>BOND
     1    1    2 1   
     2    1   12 2   
     3    1   22 1   
     4    2   11 1   
     5    2   15 1   
     6    2   19 1   
     7    3    4 1   
     8    3   19 1   
     9    3   23 1   
    10    3   24 1   
    11    4    5 1   
    12    4   25 1   
    13    4   26 1   
    14    5    6 1   
    15    5    9 1   
    16    5   10 1   
    17    6    7 1   
    18    6   18 1   
    19    6   27 1   
    20    7    8 1   
    21    7   28 1   
    22    7   29 1   
    23    8    9 1   
    24    8   30 1   
    25    8   31 1   
    26    9   21 2   
    27   10   32 1   
    28   10   33 1   
    29   10   34 1   
    30   11   35 1   
    31   11   36 1   
    32   11   37 1   
    33   12   13 1   
    34   12   38 1   
    35   13   14 1   
    36   13   20 2   
    37   14   15 2   
    38   14   39 1   
    39   15   16 1   
    40   16   17 1   
    41   16   40 1   
    42   16   41 1   
    43   17   18 1   
    44   17   42 1   
    45   17   43 1   
    46   18   19 1   
    47   18   44 1   
    48   19   45 1   
@<TRIPOS>SUBSTRUCTURE
     1 ANB         1 TEMP              0 ****  ****    0 ROOT
