@<TRIPOS>MOLECULE
molecule
   45    48     1     0     0
SMALL
bcc


@<TRIPOS>ATOM
      1 C1           0.0000     0.0000     0.0000 c2         1 ANB      -0.107200
      2 C10          1.5100     0.0000     0.0000 c3         1 ANB      -0.001600
      3 C11          1.4520    -1.1320    -2.2200 c3         1 ANB      -0.087400
      4 C12          2.0410    -2.2290    -3.1200 c3         1 ANB      -0.054400
      5 C13          3.5460    -2.0520    -3.1190 c3         1 ANB      -0.179000
      6 C14          4.0390    -2.3190    -1.6720 c3         1 ANB      -0.064700
      7 C15          5.5570    -2.4160    -1.8770 c3         1 ANB      -0.077400
      8 C16          5.6680    -3.2260    -3.1980 c3         1 ANB      -0.190400
      9 C17          4.3450    -3.0170    -3.9420 c          1 ANB       0.589100
     10 C18          3.8940    -0.6180    -3.5250 c3         1 ANB      -0.083100
     11 C19          1.9770     1.2780    -0.7000 c3         1 ANB      -0.083100
     12 C2          -0.7330     0.0640     1.1000 ce         1 ANB      -0.237200
     13 C3          -0.0740     0.1310     2.4160 c          1 ANB       0.561500
     14 C4           1.3930     0.0710     2.4700 ce         1 ANB      -0.244200
     15 C5           2.1060     0.0000     1.3560 c2         1 ANB      -0.050400
     16 C6           3.6180    -0.0820     1.4540 c3         1 ANB      -0.049200
     17 C7           4.0870    -1.2740     0.6140 c3         1 ANB      -0.074400
     18 C8           3.5610    -1.1360    -0.8150 c3         1 ANB      -0.063700
     19 C9           2.0260    -1.1920    -0.8090 c3         1 ANB      -0.044700
     20 O1          -0.7320     0.2340     3.4360 o          1 ANB      -0.526100
     21 O2           4.0060    -3.5340    -4.9800 o          1 ANB      -0.504100
     22 HC1         -0.5120    -0.0550    -0.9530 ha         1 ANB       0.132000
     23 H111         0.3770    -1.2590    -2.1680 hc         1 ANB       0.050200
     24 H112         1.6780    -0.1640    -2.6510 hc         1 ANB       0.050200
     25 H121         1.7860    -3.2050    -2.7240 hc         1 ANB       0.055200
     26 H122         1.6590    -2.1220    -4.1280 hc         1 ANB       0.055200
     27 HC41         3.6400    -3.2540    -1.2990 hc         1 ANB       0.066700
     28 H151         5.9920    -1.4300    -1.9950 hc         1 ANB       0.051700
     29 H152         6.0210    -2.9530    -1.0580 hc         1 ANB       0.051700
     30 H161         6.4920    -2.8530    -3.7940 hc         1 ANB       0.072200
     31 H162         5.8070    -4.2780    -2.9770 hc         1 ANB       0.072200
     32 H181         4.6970    -0.2490    -2.8970 hc         1 ANB       0.045367
     33 H182         3.0230     0.0140    -3.4050 hc         1 ANB       0.045367
     34 H183         4.2110    -0.6030    -4.5610 hc         1 ANB       0.045367
     35 H191         1.7720     2.1320    -0.0660 hc         1 ANB       0.044700
     36 H192         1.4480     1.3890    -1.6390 hc         1 ANB       0.044700
     37 H193         3.0420     1.2160    -0.8910 hc         1 ANB       0.044700
     38 HC2         -1.8110     0.1480     1.0290 ha         1 ANB       0.153000
     39 HC4          1.8960     0.0870     3.4300 ha         1 ANB       0.152000
     40 HC61         3.9090    -0.2270     2.4870 hc         1 ANB       0.056700
     41 HC62         4.0590     0.8300     1.0690 hc         1 ANB       0.056700
     42 HC71         5.1700    -1.2980     0.5980 hc         1 ANB       0.049700
     43 HC72         3.7070    -2.1910     1.0500 hc         1 ANB       0.049700
     44 HC8          3.8980    -0.2020    -1.2470 hc         1 ANB       0.067700
     45 HC9          1.7050    -2.1110    -0.3330 hc         1 ANB       0.062700
@<TRIPOS>BOND
     1     1     2 1
     2     1    12 2
     3     1    22 1
     4     2    11 1
     5     2    15 1
     6     2    19 1
     7     3     4 1
     8     3    19 1
     9     3    23 1
    10     3    24 1
    11     4     5 1
    12     4    25 1
    13     4    26 1
    14     5     6 1
    15     5     9 1
    16     5    10 1
    17     6     7 1
    18     6    18 1
    19     6    27 1
    20     7     8 1
    21     7    28 1
    22     7    29 1
    23     8     9 1
    24     8    30 1
    25     8    31 1
    26     9    21 2
    27    10    32 1
    28    10    33 1
    29    10    34 1
    30    11    35 1
    31    11    36 1
    32    11    37 1
    33    12    13 1
    34    12    38 1
    35    13    14 1
    36    13    20 2
    37    14    15 2
    38    14    39 1
    39    15    16 1
    40    16    17 1
    41    16    40 1
    42    16    41 1
    43    17    18 1
    44    17    42 1
    45    17    43 1
    46    18    19 1
    47    18    44 1
    48    19    45 1
@<TRIPOS>SUBSTRUCTURE
     1 ANB         1 TEMP              0 ****  ****    0 ROOT
