@<TRIPOS>MOLECULE
molecule
   26    28     1     0     0
SMALL
bcc


@<TRIPOS>ATOM
      1 C1           0.0000     0.0000     0.0000 ca         1 ANC      -0.003000
      2 C2           1.4110     0.0000     0.0000 ca         1 ANC      -0.168000
      3 C3          -0.7050    -0.0050     1.2850 ca         1 ANC      -0.066000
      4 C4           2.0850     0.0000     1.1790 ca         1 ANC      -0.081000
      5 C5           0.0580     0.0000     2.4790 ca         1 ANC       0.204600
      6 C6           1.4220     0.0000     2.4030 ca         1 ANC      -0.215000
      7 C7          -4.8970    -0.0000    -1.0530 ca         1 ANC      -0.130000
      8 C8          -4.2280    -0.0000    -2.2750 ca         1 ANC      -0.123000
      9 C9          -4.2270    -0.0000     0.1280 ca         1 ANC      -0.114000
     10 C10         -2.8720    -0.0000    -2.3470 ca         1 ANC      -0.119000
     11 C11         -2.8160    -0.0000     0.1280 ca         1 ANC      -0.045000
     12 C12         -2.1110    -0.0000    -1.1580 ca         1 ANC      -0.025000
     13 C13         -0.7190     0.0000    -1.1940 ca         1 ANC      -0.117000
     14 C14         -2.0950     0.0000     1.3210 ca         1 ANC      -0.097000
     15 N1          -0.5770     0.0000     3.7180 nv         1 ANC      -0.934200
     16 HC2          1.9550     0.0000    -0.9370 ha         1 ANC       0.131000
     17 HC4          3.1680    -0.0000     1.1670 ha         1 ANC       0.125000
     18 HC6          2.0020     0.0000     3.3180 ha         1 ANC       0.128000
     19 HC7         -5.9810    -0.0000    -1.0440 ha         1 ANC       0.126000
     20 HC8         -4.8050    -0.0000    -3.1920 ha         1 ANC       0.126000
     21 HC9         -4.7720     0.0000     1.0640 ha         1 ANC       0.130000
     22 H10C        -2.3770     0.0000    -3.3110 ha         1 ANC       0.133000
     23 H13C        -0.2020     0.1280    -2.1380 ha         1 ANC       0.138000
     24 H14C        -2.6120     0.1140     2.2670 ha         1 ANC       0.132000
     25 H1N         -1.4410    -0.4910     3.8380 hn         1 ANC       0.430800
     26 H2N         -0.1730     0.4970     4.4870 hn         1 ANC       0.430800
@<TRIPOS>BOND
     1     1     2 ar
     2     1     3 ar
     3     1    13 ar
     4     2     4 ar
     5     2    16 1
     6     3     5 ar
     7     3    14 ar
     8     4     6 ar
     9     4    17 1
    10     5     6 ar
    11     5    15 1
    12     6    18 1
    13     7     8 ar
    14     7     9 ar
    15     7    19 1
    16     8    10 ar
    17     8    20 1
    18     9    11 ar
    19     9    21 1
    20    10    12 ar
    21    10    22 1
    22    11    12 ar
    23    11    14 ar
    24    12    13 ar
    25    13    23 1
    26    14    24 1
    27    15    25 1
    28    15    26 1
@<TRIPOS>SUBSTRUCTURE
     1 ANC         1 TEMP              0 ****  ****    0 ROOT
