@<TRIPOS>MOLECULE
AND
   49    52     1     0     0
SMALL
bcc


@<TRIPOS>ATOM
      1 C1          0.0560   -0.1440   -0.1450 c3        1 AND     -0.070400
      2 C2          1.5460    0.0940   -0.0830 c3        1 AND     -0.075400
      3 C3          1.9960    0.2340    1.3650 c3        1 AND      0.145100
      4 O3          3.4080    0.4050    1.3410 oh        1 AND     -0.599800
      5 C4          1.6140   -1.0070    2.1670 c3        1 AND     -0.076200
      6 C5          0.1660   -1.3380    2.0330 c2        1 AND     -0.103400
      7 C6         -0.5610   -1.6090    3.1270 c2        1 AND     -0.169200
      8 C7         -1.9930   -1.9720    3.1120 c3        1 AND     -0.042200
      9 C8         -2.4730   -2.3760    1.7260 c3        1 AND     -0.045700
     10 C9         -1.9410   -1.3860    0.6770 c3        1 AND     -0.049700
     11 C10        -0.3950   -1.3910    0.6330 c3        1 AND      0.000200
     12 C11        -2.5480   -1.6060   -0.7060 c3        1 AND     -0.076400
     13 C12        -4.0610   -1.7510   -0.7210 c3        1 AND     -0.056400
     14 C13        -4.4970   -2.8040    0.2790 c3        1 AND     -0.152000
     15 C14        -3.9850   -2.3570    1.6660 c3        1 AND     -0.064700
     16 C15        -4.7960   -3.1840    2.6580 c3        1 AND     -0.073400
     17 C16        -6.1760   -3.3020    2.0050 c3        1 AND     -0.188400
     18 C17        -5.9940   -2.9430    0.5420 c         1 AND      0.577100
     19 O17        -6.8980   -2.8050   -0.2760 o         1 AND     -0.519100
     20 C18        -4.0130   -4.1850   -0.1430 c3        1 AND     -0.082100
     21 C19         0.1380   -2.6400   -0.0620 c3        1 AND     -0.084100
     22 H11        -0.2460   -0.2560   -1.2190 hc        1 AND      0.045200
     23 H12        -0.4780    0.7540    0.2660 hc        1 AND      0.045200
     24 H21         2.1020   -0.7530   -0.5620 hc        1 AND      0.056200
     25 H22         1.8090    1.0280   -0.6430 hc        1 AND      0.056200
     26 H3          1.5230    1.1460    1.8290 h1        1 AND      0.035700
     27 HO3         3.6980    0.4520    2.2590 ho        1 AND      0.398000
     28 H41         2.2290   -1.8760    1.8030 hc        1 AND      0.052200
     29 H42         1.8830   -0.8430    3.2440 hc        1 AND      0.052200
     30 H6         -0.1070   -1.5590    4.1310 ha        1 AND      0.121000
     31 H71        -2.1810   -2.8200    3.8250 hc        1 AND      0.049200
     32 H72        -2.5910   -1.0940    3.4810 hc        1 AND      0.049200
     33 H8         -2.0930   -3.4090    1.5000 hc        1 AND      0.059700
     34 H9         -2.2570   -0.3570    1.0190 hc        1 AND      0.049700
     35 H111       -2.1000   -2.5210   -1.1760 hc        1 AND      0.044700
     36 H112       -2.2760   -0.7330   -1.3580 hc        1 AND      0.044700
     37 H121       -4.5440   -0.7710   -0.4690 hc        1 AND      0.051200
     38 H122       -4.4000   -2.0380   -1.7510 hc        1 AND      0.051200
     39 H14        -4.3050   -1.2810    1.8080 hc        1 AND      0.051700
     40 H151       -4.3370   -4.1920    2.8080 hc        1 AND      0.049200
     41 H152       -4.8550   -2.6800    3.6520 hc        1 AND      0.049200
     42 H161       -6.9090   -2.6000    2.4750 hc        1 AND      0.074700
     43 H162       -6.5850   -4.3380    2.0910 hc        1 AND      0.074700
     44 H181       -4.4900   -4.4660   -1.1140 hc        1 AND      0.044033
     45 H182       -4.2880   -4.9470    0.6270 hc        1 AND      0.044033
     46 H183       -2.9060   -4.2020   -0.2740 hc        1 AND      0.044033
     47 H191       -0.3850   -3.5530    0.3110 hc        1 AND      0.038367
     48 H192       -0.0120   -2.5680   -1.1670 hc        1 AND      0.038367
     49 H193        1.2320   -2.7580    0.1280 hc        1 AND      0.038367
@<TRIPOS>BOND
     1    1    2 1   
     2    1   11 1   
     3    1   22 1   
     4    1   23 1   
     5    2    3 1   
     6    2   24 1   
     7    2   25 1   
     8    3    4 1   
     9    3    5 1   
    10    3   26 1   
    11    4   27 1   
    12    5    6 1   
    13    5   28 1   
    14    5   29 1   
    15    6    7 2   
    16    6   11 1   
    17    7    8 1   
    18    7   30 1   
    19    8    9 1   
    20    8   31 1   
    21    8   32 1   
    22    9   10 1   
    23    9   15 1   
    24    9   33 1   
    25   10   11 1   
    26   10   12 1   
    27   10   34 1   
    28   11   21 1   
    29   12   13 1   
    30   12   35 1   
    31   12   36 1   
    32   13   14 1   
    33   13   37 1   
    34   13   38 1   
    35   14   15 1   
    36   14   18 1   
    37   14   20 1   
    38   15   16 1   
    39   15   39 1   
    40   16   17 1   
    41   16   40 1   
    42   16   41 1   
    43   17   18 1   
    44   17   42 1   
    45   17   43 1   
    46   18   19 2   
    47   20   44 1   
    48   20   45 1   
    49   20   46 1   
    50   21   47 1   
    51   21   48 1   
    52   21   49 1   
@<TRIPOS>SUBSTRUCTURE
     1 AND         1 TEMP              0 ****  ****    0 ROOT
