@<TRIPOS>MOLECULE
ANE
   15    16     1     0     0
SMALL
bcc


@<TRIPOS>ATOM
      1 N9           0.0000     0.0000     0.0000 na         1 ANE       0.177000
      2 C8           1.3630     0.0000     0.0000 cc         1 ANE       0.220700
      3 N7           1.8060     0.0000     1.2240 nd         1 ANE      -0.488100
      4 C5           0.7600     0.0050     2.0830 ca         1 ANE      -0.230200
      5 C6           0.6300    -0.0000     3.4810 ca         1 ANE       0.593200
      6 N6           1.7490    -0.0000     4.2960 nv         1 ANE      -0.516500
      7 N1          -0.5910    -0.0000     4.0040 nb         1 ANE      -0.724000
      8 C2          -1.6640    -0.0000     3.2340 ca         1 ANE       0.681900
      9 N3          -1.5910    -0.0000     1.9200 nb         1 ANE      -0.669000
     10 C4          -0.4110     0.0000     1.3080 ca         1 ANE       0.239800
     11 HN9         -0.5920    -0.0000    -0.8070 hn         1 ANE       0.132700
     12 H8           1.9840    -0.0010    -0.8870 h5         1 ANE       0.030800
     13 HN61         2.5610    -0.5210     4.0310 hn         1 ANE       0.276800
     14 HN62         1.7390     0.5080     5.1590 hn         1 ANE       0.276800
     15 H2          -2.6410    -0.0000     3.7020 h5         1 ANE      -0.003900
@<TRIPOS>BOND
     1     1     2 1   
     2     1    10 1   
     3     1    11 1   
     4     2     3 2   
     5     2    12 1   
     6     3     4 1   
     7     4     5 ar  
     8     4    10 ar  
     9     5     6 1   
    10     5     7 ar  
    11     6    13 1   
    12     6    14 1   
    13     7     8 ar  
    14     8     9 ar  
    15     8    15 1   
    16     9    10 ar  
@<TRIPOS>SUBSTRUCTURE
     1 ANE         1 TEMP              0 ****  ****    0 ROOT
