@<TRIPOS>MOLECULE
molecule
   25    27     1     0     0
SMALL
bcc


@<TRIPOS>ATOM
      1 C1           0.0000     0.0000     0.0000 ca         1 ANF      -0.108000
      2 C2           1.3580     0.0000     0.0000 ca         1 ANF      -0.129000
      3 C3           2.0900     0.0000     1.1860 ca         1 ANF      -0.120000
      4 C4           1.4820     0.0030     2.4000 ca         1 ANF      -0.121000
      5 C5          -2.6700     0.0080     4.9710 ca         1 ANF      -0.121000
      6 C6          -4.0280     0.0090     4.9740 ca         1 ANF      -0.120000
      7 C7          -4.7630     0.0080     3.7900 ca         1 ANF      -0.129000
      8 C8          -4.1580     0.0060     2.5740 ca         1 ANF      -0.108000
      9 C9          -2.0950     0.0030     1.2610 ca         1 ANF       0.124100
     10 O9          -2.8090     0.0020     0.1080 oh         1 ANF      -0.516100
     11 C10         -0.5840     0.0050     3.7020 ca         1 ANF      -0.115000
     12 C11         -1.9770     0.0060     3.7410 ca         1 ANF      -0.021500
     13 C12         -2.7510     0.0050     2.4970 ca         1 ANF      -0.059000
     14 C13         -0.6960    -0.0030     1.2250 ca         1 ANF      -0.059000
     15 C14          0.0720     0.0030     2.4720 ca         1 ANF      -0.021500
     16 H1          -0.5450    -0.0000    -0.9360 ha         1 ANF       0.142000
     17 H2           1.8860    -0.0020    -0.9460 ha         1 ANF       0.128000
     18 H3           3.1730    -0.0000     1.1380 ha         1 ANF       0.127500
     19 H4           2.0750     0.0030     3.3070 ha         1 ANF       0.134000
     20 H5          -2.1230     0.0080     5.9060 ha         1 ANF       0.134000
     21 H6          -4.5530     0.0100     5.9210 ha         1 ANF       0.127500
     22 H7          -5.8460     0.0080     3.8410 ha         1 ANF       0.128000
     23 H8          -4.7530     0.0050     1.6690 ha         1 ANF       0.142000
     24 H9          -2.9740     0.8910    -0.1610 ho         1 ANF       0.421000
     25 H10         -0.0160    -0.0980     4.6190 ha         1 ANF       0.138000
@<TRIPOS>BOND
     1     1     2 ar
     2     1    14 ar
     3     1    16 1
     4     2     3 ar
     5     2    17 1
     6     3     4 ar
     7     3    18 1
     8     4    15 ar
     9     4    19 1
    10     5     6 ar
    11     5    12 ar
    12     5    20 1
    13     6     7 ar
    14     6    21 1
    15     7     8 ar
    16     7    22 1
    17     8    13 ar
    18     8    23 1
    19     9    10 1
    20     9    13 ar
    21     9    14 ar
    22    10    24 1
    23    11    12 ar
    24    11    15 ar
    25    11    25 1
    26    12    13 ar
    27    14    15 ar
@<TRIPOS>SUBSTRUCTURE
     1 ANF         1 TEMP              0 ****  ****    0 ROOT
