@<TRIPOS>MOLECULE
ANF
   25    27     1     0     0
SMALL
bcc


@<TRIPOS>ATOM
      1 C1          0.0080    0.1060   -0.0160 ca        1 ANF     -0.103000
      2 C2          1.3720    0.0970   -0.0430 ca        1 ANF     -0.137000
      3 C3          2.1180    0.0540    1.1710 ca        1 ANF     -0.116000
      4 C4          1.4720    0.0230    2.3710 ca        1 ANF     -0.126500
      5 C5         -2.6990   -0.0270    5.0040 ca        1 ANF     -0.126500
      6 C6         -4.0640   -0.0190    5.0580 ca        1 ANF     -0.116000
      7 C7         -4.8340    0.0230    3.8610 ca        1 ANF     -0.137000
      8 C8         -4.2150    0.0550    2.6430 ca        1 ANF     -0.103000
      9 C9         -2.1170    0.0810    1.3060 ca        1 ANF      0.157100
     10 O9         -2.9410    0.1200    0.2050 oh        1 ANF     -0.496100
     11 C10        -0.6170   -0.0020    3.6720 ca        1 ANF     -0.151000
     12 C11        -2.0150    0.0060    3.7470 ca        1 ANF      0.000500
     13 C12        -2.7880    0.0480    2.5510 ca        1 ANF     -0.087000
     14 C13        -0.7100    0.0730    1.2230 ca        1 ANF     -0.087000
     15 C14         0.0390    0.0310    2.4400 ca        1 ANF      0.000500
     16 H1         -0.5480    0.1380   -0.9650 ha        1 ANF      0.133500
     17 H2          1.9180    0.1210   -0.9970 ha        1 ANF      0.133000
     18 H3          3.2170    0.0480    1.1150 ha        1 ANF      0.133000
     19 H4          2.0320   -0.0100    3.3180 ha        1 ANF      0.134000
     20 H5         -2.0930   -0.0600    5.9220 ha        1 ANF      0.134000
     21 H6         -4.5900   -0.0450    6.0240 ha        1 ANF      0.133000
     22 H7         -5.9310    0.0280    3.9380 ha        1 ANF      0.133000
     23 H8         -4.7930    0.0880    1.7060 ha        1 ANF      0.133500
     24 H9         -2.4000    0.1420   -0.5950 ho        1 ANF      0.424000
     25 H10        -0.0270   -0.0340    4.6010 ha        1 ANF      0.136000
@<TRIPOS>BOND
     1    1    2 ar  
     2    1   14 ar  
     3    1   16 1   
     4    2    3 ar  
     5    2   17 1   
     6    3    4 ar  
     7    3   18 1   
     8    4   15 ar  
     9    4   19 1   
    10    5    6 ar  
    11    5   12 ar  
    12    5   20 1   
    13    6    7 ar  
    14    6   21 1   
    15    7    8 ar  
    16    7   22 1   
    17    8   13 ar  
    18    8   23 1   
    19    9   10 1   
    20    9   13 ar  
    21    9   14 ar  
    22   10   24 1   
    23   11   12 ar  
    24   11   15 ar  
    25   11   25 1   
    26   12   13 ar  
    27   14   15 ar  
@<TRIPOS>SUBSTRUCTURE
     1 ANF         1 TEMP              0 ****  ****    0 ROOT
