@<TRIPOS>MOLECULE
molecule
   19    20     1     0     0
SMALL
bcc


@<TRIPOS>ATOM
      1 N9           0.0000     0.0000     0.0000 na         1 ANG      -0.280900
      2 C4           1.3730     0.0000     0.0000 cc         1 ANG       0.017800
      3 N3           2.3020     0.0000     0.9600 nc         1 ANG      -0.551100
      4 C2           3.5830    -0.0000     0.6660 cd         1 ANG       0.445800
      5 N2           4.5020    -0.0010     1.6870 nz         1 ANG      -0.726600
      6 N1           4.0240     0.0040    -0.6220 ns         1 ANG      -0.465400
      7 C6           3.1410     0.0000    -1.6450 c          1 ANG       0.621000
      8 O6           3.5270    -0.0010    -2.8030 o          1 ANG      -0.525500
      9 C5           1.7630     0.0000    -1.3420 cd         1 ANG       0.319800
     10 N7           0.6310     0.0000    -2.0940 nd         1 ANG      -0.615000
     11 C8          -0.4120     0.0000    -1.3050 cc         1 ANG       0.742400
     12 N8          -1.7300     0.0000    -1.7250 nv         1 ANG      -1.033500
     13 H9          -0.5920     0.0000     0.8070 hn         1 ANG       0.328700
     14 H21          4.0250    -0.0060     2.5660 hn         1 ANG       0.477800
     15 H22          5.0790    -0.8160     1.6160 hn         1 ANG       0.477800
     16 H1           5.0070     0.0040    -0.8120 hn         1 ANG       0.350500
     17 H81         -2.2030     0.8670    -1.8880 hn         1 ANG       0.469800
     18 H82         -2.2030    -0.8670    -1.8880 hn         1 ANG       0.469800
     19 H23          5.0510     0.8350     1.6430 hn         1 ANG       0.477800
@<TRIPOS>BOND
     1     1     2 1
     2     1    11 1
     3     1    13 1
     4     2     3 1
     5     2     9 2
     6     3     4 2
     7     4     5 1
     8     4     6 1
     9     5    14 1
    10     5    15 1
    11     6     7 1
    12     6    16 1
    13     7     8 2
    14     7     9 1
    15     9    10 1
    16    10    11 2
    17    11    12 1
    18    12    17 1
    19    12    18 1
    20    19     5 1
@<TRIPOS>SUBSTRUCTURE
     1 ANG         1 TEMP              0 ****  ****    0 ROOT
