@<TRIPOS>MOLECULE
ANG
   19    20     1     0     0
SMALL
bcc


@<TRIPOS>ATOM
      1 N9           0.0000     0.0000     0.0000 na         1 ANG       0.282100
      2 C4           1.3730     0.0000     0.0000 cc         1 ANG      -0.248200
      3 N3           2.3020     0.0000     0.9600 nc         1 ANG      -0.340100
      4 C2           3.5830    -0.0000     0.6660 cd         1 ANG      -0.027200
      5 N2           4.5020    -0.0010     1.6870 nz         1 ANG       0.224400
      6 N1           4.0240     0.0040    -0.6220 ns         1 ANG       0.000600
      7 C6           3.1410     0.0000    -1.6450 c          1 ANG       0.519000
      8 O6           3.5270    -0.0010    -2.8030 o          1 ANG      -0.565500
      9 C5           1.7630     0.0000    -1.3420 cd         1 ANG       0.288800
     10 N7           0.6310     0.0000    -2.0940 nd         1 ANG      -0.507000
     11 C8          -0.4120     0.0000    -1.3050 cc         1 ANG       0.384400
     12 N8          -1.7300     0.0000    -1.7250 nv         1 ANG      -0.584500
     13 H9          -0.5920     0.0000     0.8070 hn         1 ANG       0.142700
     14 H21          4.0250    -0.0060     2.5660 hn         1 ANG       0.216133
     15 H22          5.0790    -0.8160     1.6160 hn         1 ANG       0.216133
     16 H1           5.0070     0.0040    -0.8120 hn         1 ANG       0.188500
     17 H81         -2.2030     0.8670    -1.8880 hn         1 ANG       0.296800
     18 H82         -2.2030    -0.8670    -1.8880 hn         1 ANG       0.296800
     19 H23          5.0510     0.8350     1.6430 hn         1 ANG       0.216133
@<TRIPOS>BOND
     1     1     2 1   
     2     1    11 1   
     3     1    13 1   
     4     2     3 1   
     5     2     9 2   
     6     3     4 2   
     7     4     5 1   
     8     4     6 1   
     9     5    14 1   
    10     5    15 1   
    11     5    19 1   
    12     6     7 1   
    13     6    16 1   
    14     7     8 2   
    15     7     9 1   
    16     9    10 1   
    17    10    11 2   
    18    11    12 1   
    19    12    17 1   
    20    12    18 1   
@<TRIPOS>SUBSTRUCTURE
     1 ANG         1 TEMP              0 ****  ****    0 ROOT
