@<TRIPOS>MOLECULE
ANH
   55    56     1     0     0
SMALL
bcc


@<TRIPOS>ATOM
      1 N12          0.0000     0.0000     0.0000 ns         1 ANH      -0.220900
      2 C13          1.4650     0.0000     0.0000 c3         1 ANH       0.057700
      3 C30          1.9750     0.0000     1.4440 c3         1 ANH      -0.145100
      4 C14          1.9680    -1.2310    -0.7090 c          1 ANH       0.676100
      5 O17          3.0240    -1.2000    -1.2950 o          1 ANH      -0.559000
      6 O15          1.2430    -2.3600    -0.6910 os         1 ANH      -0.417900
      7 C16          1.7270    -3.5450    -1.3750 c3         1 ANH       0.280700
      8 C21          1.4730     1.2290     2.1530 ca         1 ANH      -0.020300
      9 C22          0.2630     1.1940     2.8240 ca         1 ANH      -0.033000
     10 C23         -0.2050     2.3190     3.4780 ca         1 ANH      -0.061000
     11 C24          0.5320     3.4860     3.4650 ca         1 ANH      -0.095000
     12 C25          1.7520     3.5270     2.7910 ca         1 ANH      -0.218900
     13 C26          2.2210     2.3870     2.1380 ca         1 ANH      -0.069000
     14 C27          2.5480     4.7760     2.7720 ce         1 ANH       0.208800
     15 N28          2.0840     5.8980     3.4230 nz         1 ANH       0.190400
     16 N29          3.6870     4.8120     2.1420 n2         1 ANH      -0.479100
     17 C11         -0.6730     0.5830    -1.0110 c          1 ANH       0.568100
     18 C10         -2.1790     0.5830    -1.0120 c3         1 ANH       0.165800
     19 N9          -2.6660     1.2740    -2.2070 n7         1 ANH      -0.587100
     20 O20         -0.0660     1.1080    -1.9200 o          1 ANH      -0.632100
     21 C2          -6.0220     3.7270     1.0230 ca         1 ANH      -0.037300
     22 C3          -5.5680     4.4030    -0.0940 ca         1 ANH      -0.139500
     23 C4          -5.0400     3.7000    -1.1610 ca         1 ANH       0.008500
     24 C5          -4.9670     2.3200    -1.1100 ca         1 ANH      -0.176500
     25 C6          -5.4260     1.6440     0.0030 ca         1 ANH       0.008500
     26 C7          -5.9490     2.3470     1.0720 ca         1 ANH      -0.139500
     27 S8          -4.2940     1.4260    -2.4710 sy         1 ANH       1.048200
     28 O18         -4.4260     2.2800    -3.5990 o          1 ANH      -0.573800
     29 O19         -4.8250     0.1120    -2.3690 o          1 ANH      -0.573800
     30 H12         -0.5000    -0.4800     0.7220 hn         1 ANH       0.195500
     31 H13          1.8270     0.8840    -0.5110 h1         1 ANH       0.068700
     32 H301         2.3730     0.7330     0.7530 hc         1 ANH       0.083200
     33 H302         2.8580    -0.5360     1.7690 hc         1 ANH       0.083200
     34 H161         1.8540    -3.3280    -2.4290 h1         1 ANH       0.007700
     35 H162         2.6780    -3.8440    -0.9510 h1         1 ANH       0.007700
     36 H163         1.0100    -4.3490    -1.2560 h1         1 ANH       0.007700
     37 H22         -0.3190     0.2810     2.8370 ha         1 ANH       0.130000
     38 H23         -1.1530     2.2840     4.0010 ha         1 ANH       0.127000
     39 H24          0.1640     4.3670     3.9760 ha         1 ANH       0.086000
     40 H26          3.1680     2.4140     1.6130 ha         1 ANH       0.117000
     41 H281         2.7510     6.6390     3.3280 hn         1 ANH       0.222133
     42 H282         1.2130     6.1820     3.0190 hn         1 ANH       0.222133
     43 H29          4.0250     3.9970     1.6700 hn         1 ANH       0.381400
     44 H101        -2.5410     1.0930    -0.1270 h1         1 ANH       0.026700
     45 H102        -2.5400    -0.4380    -1.0130 h1         1 ANH       0.026700
     46 HN9         -2.0160     1.6360    -2.8760 hn         1 ANH       0.380800
     47 H11         -5.9460     5.3260     2.4250 hc         1 ANH       0.012367
     48 H12A        -6.6760     3.8390     3.0450 hc         1 ANH       0.012367
     49 H13A        -7.5790     4.8650     1.9230 hc         1 ANH       0.012367
     50 H6          -5.3680     0.5630     0.0420 ha         1 ANH       0.124500
     51 H7          -6.3090     1.8160     1.9450 ha         1 ANH       0.113500
     52 H3          -5.6260     5.4840    -0.1330 ha         1 ANH       0.113500
     53 C1          -6.5960     4.4930     2.1850 c3         1 ANH       0.056200
     54 H283         1.9510     5.6920     4.3930 hn         1 ANH       0.222133
     55 H4          -4.6820     4.2300    -2.0350 ha         1 ANH       0.124500
@<TRIPOS>BOND
     1     1     2 1   
     2     1    17 1   
     3     1    30 1   
     4     2     3 1   
     5     2     4 1   
     6     2    31 1   
     7     3     8 1   
     8     3    32 1   
     9     3    33 1   
    10     4     5 2   
    11     4     6 1   
    12     6     7 1   
    13     7    34 1   
    14     7    35 1   
    15     7    36 1   
    16     8     9 ar  
    17     8    13 ar  
    18     9    10 ar  
    19     9    37 1   
    20    10    11 ar  
    21    10    38 1   
    22    11    12 ar  
    23    11    39 1   
    24    12    13 ar  
    25    12    14 1   
    26    13    40 1   
    27    14    15 1   
    28    14    16 2   
    29    15    41 1   
    30    15    42 1   
    31    15    54 1   
    32    16    43 1   
    33    17    18 1   
    34    17    20 2   
    35    18    19 1   
    36    18    44 1   
    37    18    45 1   
    38    19    27 1   
    39    19    46 1   
    40    21    22 ar  
    41    21    26 ar  
    42    21    53 1   
    43    22    23 ar  
    44    22    52 1   
    45    23    24 ar  
    46    23    55 1   
    47    24    25 ar  
    48    24    27 1   
    49    25    26 ar  
    50    25    50 1   
    51    26    51 1   
    52    27    28 2   
    53    27    29 2   
    54    47    53 1   
    55    48    53 1   
    56    49    53 1   
@<TRIPOS>SUBSTRUCTURE
     1 ANH         1 TEMP              0 ****  ****    0 ROOT
