@<TRIPOS>MOLECULE
molecule
   55    56     1     0     0
SMALL
bcc


@<TRIPOS>ATOM
      1 N12          0.0000     0.0000     0.0000 ns         1 ANH      -0.587900
      2 C13          1.4650     0.0000     0.0000 c3         1 ANH       0.136700
      3 C30          1.9750     0.0000     1.4440 c3         1 ANH      -0.181100
      4 C14          1.9680    -1.2310    -0.7090 c          1 ANH       0.621100
      5 O17          3.0240    -1.2000    -1.2950 o          1 ANH      -0.526000
      6 O15          1.2430    -2.3600    -0.6910 os         1 ANH      -0.429900
      7 C16          1.7270    -3.5450    -1.3750 c3         1 ANH       0.144700
      8 C21          1.4730     1.2290     2.1530 ca         1 ANH      -0.044300
      9 C22          0.2630     1.1940     2.8240 ca         1 ANH      -0.054000
     10 C23         -0.2050     2.3190     3.4780 ca         1 ANH      -0.108000
     11 C24          0.5320     3.4860     3.4650 ca         1 ANH      -0.127000
     12 C25          1.7520     3.5270     2.7910 ca         1 ANH      -0.187900
     13 C26          2.2210     2.3870     2.1380 ca         1 ANH      -0.055000
     14 C27          2.5480     4.7760     2.7720 ce         1 ANH       0.541800
     15 N28          2.0840     5.8980     3.4230 nz         1 ANH      -0.801600
     16 N29          3.6870     4.8120     2.1420 n2         1 ANH      -0.677100
     17 C11         -0.6730     0.5830    -1.0110 c          1 ANH       0.653100
     18 C10         -2.1790     0.5830    -1.0120 c3         1 ANH       0.168800
     19 N9          -2.6660     1.2740    -2.2070 n7         1 ANH      -0.909100
     20 O20         -0.0660     1.1080    -1.9200 o          1 ANH      -0.593100
     21 C2          -6.0220     3.7270     1.0230 ca         1 ANH      -0.029300
     22 C3          -5.5680     4.4030    -0.0940 ca         1 ANH      -0.156500
     23 C4          -5.0400     3.7000    -1.1610 ca         1 ANH      -0.025500
     24 C5          -4.9670     2.3200    -1.1100 ca         1 ANH      -0.327500
     25 C6          -5.4260     1.6440     0.0030 ca         1 ANH      -0.025500
     26 C7          -5.9490     2.3470     1.0720 ca         1 ANH      -0.156500
     27 S8          -4.2940     1.4260    -2.4710 sy         1 ANH       1.426200
     28 O18         -4.4260     2.2800    -3.5990 o          1 ANH      -0.622300
     29 O19         -4.8250     0.1120    -2.3690 o          1 ANH      -0.622300
     30 H12         -0.5000    -0.4800     0.7220 hn         1 ANH       0.331500
     31 H13          1.8270     0.8840    -0.5110 h1         1 ANH       0.103700
     32 H301         2.3730     0.7330     0.7530 hc         1 ANH       0.113700
     33 H302         2.8580    -0.5360     1.7690 hc         1 ANH       0.113700
     34 H161         1.0140    -4.3510    -1.2500 h1         1 ANH       0.057033
     35 H162         2.6820    -3.8400    -0.9560 h1         1 ANH       0.057033
     36 H163         1.8460    -3.3300    -2.4300 h1         1 ANH       0.057033
     37 H22         -0.3190     0.2810     2.8370 ha         1 ANH       0.162000
     38 H23         -1.1530     2.2840     4.0010 ha         1 ANH       0.160000
     39 H24          0.1640     4.3670     3.9760 ha         1 ANH       0.107000
     40 H26          3.1680     2.4140     1.6130 ha         1 ANH       0.171000
     41 H281         1.9340     5.6870     4.3890 hn         1 ANH       0.465800
     42 H282         1.2220     6.1920     3.0080 hn         1 ANH       0.465800
     43 H29          4.2260     5.6550     2.1290 hn         1 ANH       0.435400
     44 H101        -2.5400    -0.4380    -1.0130 h1         1 ANH       0.065700
     45 H102        -2.5410     1.0930    -0.1270 h1         1 ANH       0.065700
     46 HN9         -2.0160     1.6360    -2.8750 hn         1 ANH       0.480800
     47 H11         -7.5790     4.8650     1.9230 hc         1 ANH       0.050033
     48 H12A        -6.6760     3.8380     3.0450 hc         1 ANH       0.050033
     49 H13A        -5.9460     5.3260     2.4250 hc         1 ANH       0.050033
     50 H6          -5.3680     0.5630     0.0420 ha         1 ANH       0.152500
     51 H7          -6.3090     1.8160     1.9450 ha         1 ANH       0.138500
     52 H3          -5.6260     5.4840    -0.1330 ha         1 ANH       0.138500
     53 C1          -6.5960     4.4930     2.1850 c3         1 ANH      -0.057800
     54 H283         2.7590     6.6330     3.3430 hn         1 ANH       0.465800
     55 H4          -4.6820     4.2300    -2.0350 ha         1 ANH       0.152500
@<TRIPOS>BOND
     1     1     2 1
     2     1    17 1
     3     1    30 1
     4     2     3 1
     5     2     4 1
     6     2    31 1
     7     3     8 1
     8     3    32 1
     9     3    33 1
    10     4     5 2
    11     4     6 1
    12     6     7 1
    13     7    34 1
    14     7    35 1
    15     7    36 1
    16     8     9 ar
    17     8    13 ar
    18     9    10 ar
    19     9    37 1
    20    10    11 ar
    21    10    38 1
    22    11    12 ar
    23    11    39 1
    24    12    13 ar
    25    12    14 1
    26    13    40 1
    27    14    15 1
    28    14    16 2
    29    15    41 1
    30    15    42 1
    31    16    43 1
    32    17    18 1
    33    17    20 2
    34    18    19 1
    35    18    44 1
    36    18    45 1
    37    19    27 1
    38    19    46 1
    39    53    21 1
    40    53    47 1
    41    53    48 1
    42    53    49 1
    43    21    22 ar
    44    21    26 ar
    45    22    23 ar
    46    22    52 1
    47    23    24 ar
    48    23    55 1
    49    24    25 ar
    50    24    27 1
    51    25    26 ar
    52    25    50 1
    53    26    51 1
    54    27    28 2
    55    27    29 2
    56    54    15 1
@<TRIPOS>SUBSTRUCTURE
     1 ANH         1 TEMP              0 ****  ****    0 ROOT
