@<TRIPOS>MOLECULE
ANI
   17    17     1     0     0
SMALL
bcc


@<TRIPOS>ATOM
      1 N            0.0000     0.0000     0.0000 nv         1 ANI      -0.566200
      2 C1           1.3970     0.0000     0.0000 ca         1 ANI       0.066600
      3 C2           2.0930     0.0000     1.2020 ca         1 ANI      -0.122000
      4 C3           3.4740    -0.0000     1.1990 ca         1 ANI      -0.036000
      5 C4           4.1640    -0.0010     0.0000 ca         1 ANI      -0.218300
      6 C5           3.4740    -0.0010    -1.1990 ca         1 ANI      -0.036000
      7 C6           2.0930    -0.0060    -1.2020 ca         1 ANI      -0.122000
      8 C7           5.6710    -0.0010     0.0000 c3         1 ANI       0.640200
      9 F1           6.1370    -1.3200     0.0010 f          1 ANI      -0.208967
     10 F2           6.1370     0.6580    -1.1430 f          1 ANI      -0.208967
     11 F3           6.1370     0.6600     1.1420 f          1 ANI      -0.208967
     12 HN1         -0.5000     0.8670    -0.0010 hn         1 ANI       0.278800
     13 HN2         -0.5000    -0.8670     0.0010 hn         1 ANI       0.278800
     14 H2           1.5530     0.0010     2.1410 ha         1 ANI       0.115000
     15 H3           4.0170    -0.0000     2.1360 ha         1 ANI       0.116000
     16 H5           4.0170    -0.0040    -2.1360 ha         1 ANI       0.116000
     17 H6           1.5530    -0.0060    -2.1410 ha         1 ANI       0.115000
@<TRIPOS>BOND
     1     1     2 1   
     2     1    12 1   
     3     1    13 1   
     4     2     3 ar  
     5     2     7 ar  
     6     3     4 ar  
     7     3    14 1   
     8     4     5 ar  
     9     4    15 1   
    10     5     6 ar  
    11     5     8 1   
    12     6     7 ar  
    13     6    16 1   
    14     7    17 1   
    15     8     9 1   
    16     8    10 1   
    17     8    11 1   
@<TRIPOS>SUBSTRUCTURE
     1 ANI         1 TEMP              0 ****  ****    0 ROOT
