@<TRIPOS>MOLECULE
ANJ
   79    80     1     0     0
SMALL
bcc


@<TRIPOS>ATOM
      1 O1           0.0000     0.0000     0.0000 o          1 ANJ      -0.637100
      2 O2           2.7800     1.2920     3.4570 oh         1 ANJ      -0.467100
      3 O3           2.4480     1.7690     5.8910 o          1 ANJ      -0.629100
      4 O4          -1.0240     1.7620     9.1230 os         1 ANJ      -0.414900
      5 O5          -1.3790     1.2890     6.9690 o          1 ANJ      -0.640500
      6 O6           1.0770    -0.5500     9.5070 os         1 ANJ      -0.371900
      7 O7           2.5020     0.9320    10.0780 o          1 ANJ      -0.612500
      8 O8          -1.8530    -2.3260     9.8190 os         1 ANJ      -0.410900
      9 O9          -0.8760    -2.3110    11.8010 o          1 ANJ      -0.559000
     10 N1           1.8860     0.0000     1.1670 ns         1 ANJ      -0.059100
     11 N2           0.7620     0.9680     7.0940 ns         1 ANJ      -0.331900
     12 C1           1.2120     0.0000     0.0000 c          1 ANJ       0.603900
     13 C2           1.1910    -0.1210     2.3770 ca         1 ANJ      -0.154400
     14 C3           0.0400    -0.8910     2.4430 ca         1 ANJ      -0.056000
     15 C4          -0.6520    -1.0140     3.6360 ca         1 ANJ      -0.113000
     16 C5          -0.2030    -0.3740     4.7700 ca         1 ANJ      -0.075000
     17 C6           0.9560     0.4050     4.7220 ca         1 ANJ      -0.167600
     18 C7           1.6530     0.5370     3.5150 ca         1 ANJ       0.169100
     19 C8           1.4390     1.0920     5.9350 c          1 ANJ       0.629700
     20 C9           1.2410     1.6490     8.3000 c3         1 ANJ      -0.106300
     21 C10          0.1430     2.5810     8.8200 c3         1 ANJ       0.205100
     22 C11         -0.2100     3.6150     7.7490 c3         1 ANJ      -0.045100
     23 C12         -1.5270     0.9910     8.1310 c          1 ANJ       0.784600
     24 C13         -2.2820    -0.2670     8.5410 c3         1 ANJ      -0.113700
     25 C14         -1.3150    -1.0170     9.4960 c3         1 ANJ       0.160100
     26 C15          0.0210    -1.1640     8.7480 c3         1 ANJ       0.123100
     27 C16          0.3330    -2.6490     8.5550 c3         1 ANJ      -0.009100
     28 C17          1.6070     0.6300     9.3250 c          1 ANJ       0.780600
     29 C18         -3.5740     0.1020     9.2730 c3         1 ANJ      -0.021400
     30 C19         -4.5380     0.7790     8.2960 c3         1 ANJ      -0.036400
     31 C20         -5.8300     1.1480     9.0290 c3         1 ANJ      -0.026400
     32 C21         -6.7940     1.8250     8.0520 c3         1 ANJ      -0.029400
     33 C22         -8.0860     2.1930     8.7840 c3         1 ANJ      -0.027400
     34 C23         -9.0500     2.8710     7.8080 c3         1 ANJ       0.006900
     35 C24         -1.5740    -2.8910    11.0040 c          1 ANJ       0.690100
     36 C25         -2.1320    -4.2500    11.3400 c3         1 ANJ      -0.089700
     37 C26         -1.6340    -5.2730    10.3160 c3         1 ANJ       0.000900
     38 C27         -1.6660    -4.6610    12.7380 c3         1 ANJ      -0.020400
     39 C28         -2.3320    -5.9820    13.1300 c3         1 ANJ       0.001900
     40 HO2          2.6110     2.0700     2.9530 ho         1 ANJ       0.403000
     41 HN1          2.8860     0.0460     1.1670 hn         1 ANJ       0.178500
     42 HN2         -0.0780     0.4240     7.1270 hn         1 ANJ       0.264500
     43 H1           1.7540     0.0270    -0.9380 h5         1 ANJ      -0.014800
     44 H3          -0.3200    -1.3980     1.5560 ha         1 ANJ       0.138000
     45 H4          -1.5500    -1.6180     3.6770 ha         1 ANJ       0.108000
     46 H5          -0.7480    -0.4770     5.7010 ha         1 ANJ       0.108000
     47 H9           2.1180     2.2360     8.0570 h1         1 ANJ       0.116700
     48 H10          0.4830     3.0800     9.7190 h1         1 ANJ       0.065700
     49 H111        -1.2540     3.5100     7.4760 hc         1 ANJ       0.029033
     50 H112        -0.0370     4.6110     8.1370 hc         1 ANJ       0.029033
     51 H113         0.4090     3.4550     6.8740 hc         1 ANJ       0.029033
     52 H13         -2.4960    -0.8750     7.6710 hc         1 ANJ       0.066700
     53 H14         -1.1680    -0.4380    10.4000 h1         1 ANJ       0.075700
     54 H15         -0.0540    -0.6790     7.7820 h1         1 ANJ       0.036700
     55 H161        -0.5310    -3.1480     8.1340 hc         1 ANJ       0.024700
     56 H162         1.1750    -2.7560     7.8820 hc         1 ANJ       0.024700
     57 H163         0.5770    -3.0940     9.5120 hc         1 ANJ       0.024700
     58 H181        -4.0330    -0.7950     9.6700 hc         1 ANJ       0.033700
     59 H182        -3.3470     0.7810    10.0860 hc         1 ANJ       0.033700
     60 H191        -4.7660     0.0990     7.4840 hc         1 ANJ       0.021200
     61 H192        -4.0790     1.6760     7.8990 hc         1 ANJ       0.021200
     62 H201        -6.2890     0.2510     9.4260 hc         1 ANJ       0.016700
     63 H202        -5.6030     1.8280     9.8410 hc         1 ANJ       0.016700
     64 H211        -7.0200     1.1450     7.2390 hc         1 ANJ       0.016200
     65 H212        -6.3350     2.7220     7.6550 hc         1 ANJ       0.016200
     66 H221        -7.8590     2.8720     9.5970 hc         1 ANJ       0.012200
     67 H222        -8.5450     1.2960     9.1810 hc         1 ANJ       0.012200
     68 H231        -9.9850     3.0840     8.3120 hc         1 ANJ       0.001367
     69 H232        -9.2350     2.2130     6.9680 hc         1 ANJ       0.001367
     70 H233        -8.6130     3.7960     7.4520 hc         1 ANJ       0.001367
     71 H25         -3.2140    -4.2120    11.3160 hc         1 ANJ       0.045700
     72 H261        -0.5560    -5.3550    10.3820 hc         1 ANJ       0.013367
     73 H262        -1.9120    -4.9510     9.3200 hc         1 ANJ       0.013367
     74 H263        -2.0820    -6.2370    10.5220 hc         1 ANJ       0.013367
     75 H271        -0.5900    -4.7850    12.7390 hc         1 ANJ       0.030700
     76 H272        -1.9420    -3.8930    13.4510 hc         1 ANJ       0.030700
     77 H281        -1.7230    -6.8090    12.7860 hc         1 ANJ       0.003700
     78 H282        -3.3130    -6.0410    12.6730 hc         1 ANJ       0.003700
     79 H283        -2.4320    -6.0310    14.2070 hc         1 ANJ       0.003700
@<TRIPOS>BOND
     1     1    12 2   
     2     2    18 1   
     3     2    40 1   
     4     3    19 2   
     5     4    21 1   
     6     4    23 1   
     7     5    23 2   
     8     6    26 1   
     9     6    28 1   
    10     7    28 2   
    11     8    25 1   
    12     8    35 1   
    13     9    35 2   
    14    10    12 1   
    15    10    13 1   
    16    10    41 1   
    17    11    19 1   
    18    11    20 1   
    19    11    42 1   
    20    12    43 1   
    21    13    14 ar  
    22    13    18 ar  
    23    14    15 ar  
    24    14    44 1   
    25    15    16 ar  
    26    15    45 1   
    27    16    17 ar  
    28    16    46 1   
    29    17    18 ar  
    30    17    19 1   
    31    20    21 1   
    32    20    28 1   
    33    20    47 1   
    34    21    22 1   
    35    21    48 1   
    36    22    49 1   
    37    22    50 1   
    38    22    51 1   
    39    23    24 1   
    40    24    25 1   
    41    24    29 1   
    42    24    52 1   
    43    25    26 1   
    44    25    53 1   
    45    26    27 1   
    46    26    54 1   
    47    27    55 1   
    48    27    56 1   
    49    27    57 1   
    50    29    30 1   
    51    29    58 1   
    52    29    59 1   
    53    30    31 1   
    54    30    60 1   
    55    30    61 1   
    56    31    32 1   
    57    31    62 1   
    58    31    63 1   
    59    32    33 1   
    60    32    64 1   
    61    32    65 1   
    62    33    34 1   
    63    33    66 1   
    64    33    67 1   
    65    34    68 1   
    66    34    69 1   
    67    34    70 1   
    68    35    36 1   
    69    36    37 1   
    70    36    38 1   
    71    36    71 1   
    72    37    72 1   
    73    37    73 1   
    74    37    74 1   
    75    38    39 1   
    76    38    75 1   
    77    38    76 1   
    78    39    77 1   
    79    39    78 1   
    80    39    79 1   
@<TRIPOS>SUBSTRUCTURE
     1 ANJ         1 TEMP              0 ****  ****    0 ROOT
