@<TRIPOS>MOLECULE
ANK
   45    46     1     0     0
SMALL
bcc


@<TRIPOS>ATOM
      1 N1          0.3810   -1.8520   -0.1020 nb        1 ANK     -0.805000
      2 C2          1.6380   -1.3200   -0.1320 ca        1 ANK      0.642900
      3 N3          2.3250   -0.6480    0.8140 nb        1 ANK     -0.702000
      4 C4          1.6200   -0.4930    1.9770 ca        1 ANK      0.436800
      5 C5          0.2530   -0.9950    2.1520 ca        1 ANK     -0.205200
      6 C6         -0.3430   -1.6760    1.0460 ca        1 ANK      0.698200
      7 N6         -1.6710   -2.0980    1.1260 nh        1 ANK     -0.930500
      8 N7         -0.2030   -0.6910    3.4410 nc        1 ANK     -0.587100
      9 C8          0.8210   -0.0450    4.0290 cd        1 ANK      0.456700
     10 N9          1.9560    0.0980    3.2000 na        1 ANK     -0.255000
     11 PA          2.9530    1.3510    9.1380 p5        1 ANK      1.621800
     12 PB          3.6960    3.2870   11.6850 p5        1 ANK      1.558700
     13 PG          6.8670    5.7980   12.0270 p4        1 ANK      1.530300
     14 C1'         3.2080    0.7750    3.5220 c3        1 ANK      0.216800
     15 O1A         4.0980    0.6030    8.5390 o         1 ANK     -0.915500
     16 O1B         3.9560    2.2660   12.7320 o         1 ANK     -0.877500
     17 O1G         6.6410    6.3150   13.3920 o         1 ANK     -0.829833
     18 C2'         4.2360   -0.1340    4.2800 c3        1 ANK      0.107100
     19 O2'         5.4810   -0.0230    3.6300 oh        1 ANK     -0.610800
     20 O2A         1.6670    0.6380    9.2970 o         1 ANK     -0.915500
     21 O2B         2.5300    4.2000   11.7820 o         1 ANK     -0.877500
     22 O2G         6.4550    6.6180   10.8680 o         1 ANK     -0.829833
     23 C3'         4.2050    0.3870    5.7340 c3        1 ANK      0.127100
     24 O3'         5.5310    0.5810    6.1660 oh        1 ANK     -0.662800
     25 O3A         3.3710    2.3310   10.2940 os        1 ANK     -0.818800
     26 N3B         5.0450    4.0840   11.2770 n3        1 ANK     -1.097900
     27 O3G         7.8560    4.7190   11.8190 o         1 ANK     -0.878633
     28 C4'         3.4360    1.7220    5.6840 c3        1 ANK      0.051100
     29 O4'         2.9390    1.9050    4.3330 os        1 ANK     -0.426600
     30 C5'         2.2590    1.8060    6.6810 c3        1 ANK      0.219400
     31 O5'         2.6510    2.4210    7.8460 os        1 ANK     -0.560200
     32 H2          2.1780   -1.4740   -1.0890 h5        1 ANK      0.029100
     33 HN6        -2.0190   -2.1790    2.0550 hn        1 ANK      0.408300
     34 HN6A       -1.9410   -2.8270    0.5080 hn        1 ANK      0.408300
     35 H8          0.8260    0.3630    5.0570 h5        1 ANK      0.119800
     36 H1'         3.6440    1.1570    2.5530 h2        1 ANK      0.095700
     37 H2'         3.9630   -1.2200    4.2250 h1        1 ANK      0.068700
     38 HO2'        6.0210    0.6110    4.1230 ho        1 ANK      0.435000
     39 H3'         3.6890   -0.3550    6.4040 h1        1 ANK      0.104700
     40 HO3'        5.4860    0.6760    7.1450 ho        1 ANK      0.512000
     41 HN3B        5.9030    3.5910   11.2100 hn        1 ANK      0.409800
     42 H4'         4.1320    2.5860    5.8630 h1        1 ANK      0.101700
     43 H5'         1.8560    0.7730    6.8910 h1        1 ANK      0.008200
     44 H5'A        1.4500    2.4240    6.1940 h1        1 ANK      0.008200
     45 H3B2        4.9960    4.8190   10.6120 hn        1 ANK      0.409800
@<TRIPOS>BOND
     1    1    2 ar  
     2    1    6 ar  
     3    2    3 ar  
     4    2   32 1   
     5    3    4 ar  
     6    4    5 ar  
     7    4   10 1   
     8    5    6 ar  
     9    5    8 1   
    10    6    7 1   
    11    7   33 1   
    12    7   34 1   
    13    8    9 2   
    14    9   10 1   
    15    9   35 1   
    16   10   14 1   
    17   11   15 1   
    18   11   20 1   
    19   11   25 1   
    20   11   31 1   
    21   12   16 1   
    22   12   21 1   
    23   12   25 1   
    24   12   26 1   
    25   13   17 1   
    26   13   22 1   
    27   13   27 2   
    28   14   18 1   
    29   14   29 1   
    30   14   36 1   
    31   18   19 1   
    32   18   23 1   
    33   18   37 1   
    34   19   38 1   
    35   23   24 1   
    36   23   28 1   
    37   23   39 1   
    38   24   40 1   
    39   26   41 1   
    40   26   45 1   
    41   28   29 1   
    42   28   30 1   
    43   28   42 1   
    44   30   31 1   
    45   30   43 1   
    46   30   44 1   
@<TRIPOS>SUBSTRUCTURE
     1 ANK         1 TEMP              0 ****  ****    0 ROOT
