@<TRIPOS>MOLECULE
molecule
   44    46     1     0     0
SMALL
bcc


@<TRIPOS>ATOM
      1 N1           0.0000     0.0000     0.0000 nb         1 ANK      -0.829000
      2 C2           1.3200     0.0000     0.0000 ca         1 ANK       0.581900
      3 N3           2.0270     0.0000     1.1110 nb         1 ANK      -0.807000
      4 C4           1.4250    -0.0000     2.2960 ca         1 ANK       0.470800
      5 C5           0.0210    -0.0000     2.3490 ca         1 ANK      -0.230200
      6 C6          -0.6880    -0.0000     1.1370 ca         1 ANK       0.671200
      7 N6          -2.0720    -0.0000     1.1260 nv         1 ANK      -1.020500
      8 N7          -0.3290    -0.0010     3.6580 nc         1 ANK      -0.618100
      9 C8           0.7450    -0.0020     4.3930 cd         1 ANK       0.378700
     10 N9           1.8530    -0.0010     3.6000 na         1 ANK      -0.259000
     11 PA           4.6050     1.6390     9.5150 p5         1 ANK       1.433800
     12 PB           4.1430     4.1840    10.9600 p5         1 ANK       1.353700
     13 PG           3.8390     6.8260    11.7520 p5         1 ANK       1.205800
     14 C1'          3.2450    -0.0020     4.0560 c3         1 ANK       0.254800
     15 O1A          3.4530     0.9790    10.1690 o          1 ANK      -0.852500
     16 O1B          2.7860     3.8670    11.4590 o          1 ANK      -0.819000
     17 O1G          2.3600     6.5030    12.3020 o          1 ANK      -0.799500
     18 C2'          3.7950    -1.4440     4.1010 c3         1 ANK       0.074100
     19 O2'          4.5590    -1.7270     2.9270 oh         1 ANK      -0.573800
     20 O2A          5.9730     1.1130    10.1810 o          1 ANK      -0.852500
     21 O2B          5.2170     3.9430    12.1350 o          1 ANK      -0.819000
     22 O2G          4.8230     6.6280    12.8390 o          1 ANK      -0.799500
     23 C3'          4.7010    -1.4610     5.3540 c3         1 ANK       0.083100
     24 O3'          6.0520    -1.7540     4.9900 oh         1 ANK      -0.582800
     25 O3A          4.4920     3.2320     9.7090 os         1 ANK      -0.722800
     26 N3B          4.1980     5.7940    10.4720 n7         1 ANK      -0.920400
     27 O3G          3.9010     8.3520    11.2430 o          1 ANK      -0.799500
     28 C4'          4.5910    -0.0260     5.9150 c3         1 ANK       0.125100
     29 O4'          3.3290     0.4700     5.4180 os         1 ANK      -0.368600
     30 C5'          4.5880    -0.0520     7.4450 c3         1 ANK       0.240400
     31 O5'          4.6030     1.2880     7.9440 os         1 ANK      -0.588200
     32 H2           1.8420     0.0000    -0.9500 h5         1 ANK       0.014100
     33 HN6         -2.5660    -0.1300     0.2650 hn         1 ANK       0.419300
     34 HN6A        -2.5790     0.1240     1.9800 hn         1 ANK       0.419300
     35 H8           0.7560    -0.0030     5.4770 h5         1 ANK       0.094800
     36 H1'          3.8590     0.6130     3.4090 h2         1 ANK       0.091700
     37 H2'          2.9840    -2.1540     4.2140 h1         1 ANK       0.042700
     38 HO2'         4.3440    -2.5890     2.6120 ho         1 ANK       0.381000
     39 H3'          4.3320    -2.1780     6.0770 h1         1 ANK       0.044700
     40 HO3'         6.3030    -2.5860     5.3570 ho         1 ANK       0.381000
     41 HN3B         4.8460     6.0810     9.7650 hn         1 ANK       0.362800
     42 H4'          5.4060     0.5850     5.5440 h1         1 ANK       0.078700
     43 H5'          5.4660    -0.5790     7.7990 h1         1 ANK       0.028700
     44 H5'A         3.6970    -0.5580     7.7960 h1         1 ANK       0.028700
@<TRIPOS>BOND
     1     1     2 ar
     2     1     6 ar
     3     2     3 ar
     4     3     4 ar
     5     4     5 ar
     6     4    10 1
     7     5     6 ar
     8     5     8 1
     9     6     7 1
    10     8     9 2
    11     9    10 1
    12    10    14 1
    13    11    15 1
    14    11    20 1
    15    11    25 1
    16    11    31 1
    17    12    16 1
    18    12    21 1
    19    12    25 1
    20    12    26 1
    21    13    17 1
    22    13    22 1
    23    13    26 1
    24    13    27 1
    25    14    18 1
    26    14    29 1
    27    18    19 1
    28    18    23 1
    29    23    24 1
    30    23    28 1
    31    28    29 1
    32    28    30 1
    33    30    31 1
    34     2    32 1
    35     7    33 1
    36     7    34 1
    37     9    35 1
    38    14    36 1
    39    18    37 1
    40    19    38 1
    41    23    39 1
    42    24    40 1
    43    26    41 1
    44    28    42 1
    45    30    43 1
    46    30    44 1
@<TRIPOS>SUBSTRUCTURE
     1 ANK         1 TEMP              0 ****  ****    0 ROOT
