@<TRIPOS>MOLECULE
ANL
   14    14     1     0     0
SMALL
bcc


@<TRIPOS>ATOM
      1 C1           0.0000     0.0000     0.0000 ca         1 ANL       0.029600
      2 C2           1.3890     0.0000     0.0000 ca         1 ANL      -0.114000
      3 C3           2.0780     0.0000     1.1960 ca         1 ANL      -0.097000
      4 C4           1.3880     0.0010     2.3940 ca         1 ANL      -0.106000
      5 C5           0.0060     0.0010     2.3980 ca         1 ANL      -0.097000
      6 C6          -0.6900     0.0050     1.2060 ca         1 ANL      -0.114000
      7 N           -0.7000     0.0000    -1.2080 nv         1 ANL      -0.561200
      8 H2           1.9320    -0.0020    -0.9380 ha         1 ANL       0.106500
      9 H3           3.1620     0.0000     1.1960 ha         1 ANL       0.100000
     10 H4           1.9310    -0.0010     3.3310 ha         1 ANL       0.101000
     11 H5          -0.5320     0.0030     3.3380 ha         1 ANL       0.100000
     12 H6          -1.7730     0.0050     1.2110 ha         1 ANL       0.106500
     13 HN1         -0.9520    -0.8670    -1.6400 hn         1 ANL       0.271800
     14 HN2         -0.9500     0.8670    -1.6410 hn         1 ANL       0.271800
@<TRIPOS>BOND
     1     1     2 ar  
     2     1     6 ar  
     3     1     7 1   
     4     2     3 ar  
     5     2     8 1   
     6     3     4 ar  
     7     3     9 1   
     8     4     5 ar  
     9     4    10 1   
    10     5     6 ar  
    11     5    11 1   
    12     6    12 1   
    13     7    13 1   
    14     7    14 1   
@<TRIPOS>SUBSTRUCTURE
     1 ANL         1 TEMP              0 ****  ****    0 ROOT
