@<TRIPOS>MOLECULE
ANM
   38    39     1     0     0
SMALL
bcc


@<TRIPOS>ATOM
      1 C1           0.0000     0.0000     0.0000 ca         1 ANM      -0.183500
      2 C2          -1.8790    -1.4350     5.4160 c3         1 ANM       0.179100
      3 C3          -1.0200    -2.1600     6.4840 c3         1 ANM       0.161100
      4 C4          -0.0290    -2.9860     5.6270 c3         1 ANM       0.111800
      5 C6          -3.5850     1.5960     6.9780 c3         1 ANM      -0.034100
      6 C9           1.3870     0.0000     0.0000 ca         1 ANM       0.130100
      7 C10          2.0780     0.0000     1.2030 ca         1 ANM      -0.183500
      8 C11          1.3830     0.0090     2.3980 ca         1 ANM      -0.054500
      9 C12          0.0000     0.0090     2.3950 ca         1 ANM      -0.136300
     10 C13         -0.6900     0.0040     1.1970 ca         1 ANM      -0.054500
     11 C15         -0.7550     0.0140     3.6980 c3         1 ANM       0.044900
     12 C16         -1.0100    -1.4260     4.1460 c3         1 ANM       0.117500
     13 N1           0.2720    -2.0820     4.4870 n7         1 ANM      -0.578200
     14 O1           2.0670    -0.0050    -1.1760 os         1 ANM      -0.283900
     15 O3          -4.0490    -0.7090     6.8140 o          1 ANM      -0.573000
     16 O4          -1.8300    -3.0190     7.2890 oh         1 ANM      -0.568800
     17 H1          -0.5420    -0.0020    -0.9380 ha         1 ANM       0.124000
     18 H2          -2.7960    -1.9830     5.2380 h1         1 ANM       0.055700
     19 H3          -0.4880    -1.4410     7.0960 h1         1 ANM       0.025700
     20 H41          0.8720    -3.2020     6.1890 h1         1 ANM       0.021200
     21 H42         -0.4970    -3.8980     5.2760 h1         1 ANM       0.021200
     22 H61         -3.9510     2.1670     6.1340 hc         1 ANM       0.027367
     23 H62         -2.6740     2.0470     7.3520 hc         1 ANM       0.027367
     24 H63         -4.3340     1.5910     7.7620 hc         1 ANM       0.027367
     25 H10          3.1610     0.0000     1.2060 ha         1 ANM       0.124000
     26 H11          1.9220     0.0110     3.3370 ha         1 ANM       0.109000
     27 H13         -1.7740     0.0040     1.1970 ha         1 ANM       0.109000
     28 H141         3.6920     0.8830    -0.2690 h1         1 ANM       0.002367
     29 H142         4.0440    -0.0020    -1.7600 h1         1 ANM       0.002367
     30 H143         3.6950    -0.8860    -0.2670 h1         1 ANM       0.002367
     31 H151        -0.1700     0.5280     4.4520 hc         1 ANM       0.031200
     32 H152        -1.7010     0.5240     3.5650 hc         1 ANM       0.031200
     33 H16         -1.5070    -1.9800     3.3580 h1         1 ANM       0.022700
     34 HN1          0.5880    -2.6230     3.7070 hn         1 ANM       0.261800
     35 HO4         -1.4480    -3.0990     8.1470 ho         1 ANM       0.391000
     36 O2          -2.1690    -0.0760     5.8400 os         1 ANM      -0.411900
     37 C5          -3.2850     0.1860     6.5380 c          1 ANM       0.684100
     38 C14          3.4590    -0.0020    -0.8480 c3         1 ANM       0.216700
@<TRIPOS>BOND
     1     1     6 ar  
     2     1    10 ar  
     3     1    17 1   
     4     2     3 1   
     5     2    12 1   
     6     2    18 1   
     7     2    36 1   
     8     3     4 1   
     9     3    16 1   
    10     3    19 1   
    11     4    13 1   
    12     4    20 1   
    13     4    21 1   
    14     5    22 1   
    15     5    23 1   
    16     5    24 1   
    17     5    37 1   
    18     6     7 ar  
    19     6    14 1   
    20     7     8 ar  
    21     7    25 1   
    22     8     9 ar  
    23     8    26 1   
    24     9    10 ar  
    25     9    11 1   
    26    10    27 1   
    27    11    12 1   
    28    11    31 1   
    29    11    32 1   
    30    12    13 1   
    31    12    33 1   
    32    13    34 1   
    33    14    38 1   
    34    15    37 2   
    35    16    35 1   
    36    28    38 1   
    37    29    38 1   
    38    30    38 1   
    39    36    37 1   
@<TRIPOS>SUBSTRUCTURE
     1 ANM         1 TEMP              0 ****  ****    0 ROOT
