@<TRIPOS>MOLECULE
molecule
   38    39     1     0     0
SMALL
bcc


@<TRIPOS>ATOM
      1 C1           0.0000     0.0000     0.0000 ca         1 ANM      -0.193000
      2 C2          -1.8790    -1.4350     5.4160 c3         1 ANM       0.150100
      3 C3          -1.0200    -2.1600     6.4840 c3         1 ANM       0.122100
      4 C4          -0.0290    -2.9860     5.6270 c3         1 ANM       0.113800
      5 C6          -3.5850     1.5960     6.9780 c3         1 ANM      -0.137100
      6 C9           1.3870     0.0000     0.0000 ca         1 ANM       0.115100
      7 C10          2.0780     0.0000     1.2030 ca         1 ANM      -0.193000
      8 C11          1.3830     0.0090     2.3980 ca         1 ANM      -0.087000
      9 C12          0.0000     0.0090     2.3950 ca         1 ANM      -0.125300
     10 C13         -0.6900     0.0040     1.1970 ca         1 ANM      -0.087000
     11 C15         -0.7550     0.0140     3.6980 c3         1 ANM      -0.010100
     12 C16         -1.0100    -1.4260     4.1460 c3         1 ANM       0.159500
     13 N1           0.2720    -2.0820     4.4870 n7         1 ANM      -0.794200
     14 O1           2.0670    -0.0050    -1.1760 os         1 ANM      -0.299900
     15 O3          -4.0490    -0.7090     6.8140 o          1 ANM      -0.535000
     16 O4          -1.8300    -3.0190     7.2890 oh         1 ANM      -0.590800
     17 H1          -0.5420    -0.0020    -0.9380 ha         1 ANM       0.141500
     18 H2          -2.7960    -1.9830     5.2380 h1         1 ANM       0.091700
     19 H3          -0.4880    -1.4410     7.0960 h1         1 ANM       0.061700
     20 H41          0.8720    -3.2020     6.1890 h1         1 ANM       0.052200
     21 H42         -0.4970    -3.8980     5.2760 h1         1 ANM       0.052200
     22 H61         -3.9510     2.1670     6.1340 hc         1 ANM       0.069367
     23 H62         -2.6740     2.0470     7.3520 hc         1 ANM       0.069367
     24 H63         -4.3340     1.5910     7.7620 hc         1 ANM       0.069367
     25 H10          3.1610     0.0000     1.2060 ha         1 ANM       0.141500
     26 H11          1.9220     0.0110     3.3370 ha         1 ANM       0.137500
     27 H13         -1.7740     0.0040     1.1970 ha         1 ANM       0.137500
     28 H141         3.6920     0.8830    -0.2690 h1         1 ANM       0.043033
     29 H142         4.0440    -0.0020    -1.7600 h1         1 ANM       0.043033
     30 H143         3.6950    -0.8860    -0.2670 h1         1 ANM       0.043033
     31 H151        -0.1700     0.5280     4.4520 hc         1 ANM       0.062200
     32 H152        -1.7010     0.5240     3.5650 hc         1 ANM       0.062200
     33 H16         -1.5070    -1.9800     3.3580 h1         1 ANM       0.046700
     34 HN1          0.5880    -2.6230     3.7070 hn         1 ANM       0.359800
     35 HO4         -1.4480    -3.0990     8.1470 ho         1 ANM       0.406000
     36 O2          -2.1690    -0.0760     5.8400 os         1 ANM      -0.434900
     37 C5          -3.2850     0.1860     6.5380 c          1 ANM       0.627100
     38 C14          3.4590    -0.0020    -0.8480 c3         1 ANM       0.106700
@<TRIPOS>BOND
     1     1     6 ar
     2     1    10 ar
     3     1    17 1
     4     2     3 1
     5     2    12 1
     6     2    36 1
     7     2    18 1
     8     3     4 1
     9     3    16 1
    10     3    19 1
    11     4    13 1
    12     4    20 1
    13     4    21 1
    14    37     5 1
    15    37    36 1
    16    37    15 2
    17     5    22 1
    18     5    23 1
    19     5    24 1
    20     6     7 ar
    21     6    14 1
    22     7     8 ar
    23     7    25 1
    24     8     9 ar
    25     8    26 1
    26     9    10 ar
    27     9    11 1
    28    10    27 1
    29    38    14 1
    30    38    28 1
    31    38    29 1
    32    38    30 1
    33    11    12 1
    34    11    31 1
    35    11    32 1
    36    12    13 1
    37    12    33 1
    38    13    34 1
    39    16    35 1
@<TRIPOS>SUBSTRUCTURE
     1 ANM         1 TEMP              0 ****  ****    0 ROOT
