@<TRIPOS>MOLECULE
ANN
   18    18     1     0     0
SMALL
bcc


@<TRIPOS>ATOM
      1 C8         -0.0270    0.0020   -0.2150 c3        1 ANN      0.123700
      2 O3          1.3640    0.0010    0.0530 os        1 ANN     -0.346900
      3 C5          1.7190   -0.0000    1.4000 ca        1 ANN      0.082100
      4 C6          3.1020    0.0030    1.6450 ca        1 ANN     -0.205000
      5 C7          3.5540    0.0010    2.9610 ca        1 ANN     -0.081000
      6 C2          2.6530   -0.0040    4.0310 ca        1 ANN     -0.149600
      7 C3          1.2820   -0.0070    3.7670 ca        1 ANN     -0.081000
      8 C4          0.8030   -0.0050    2.4560 ca        1 ANN     -0.205000
      9 C1          3.1600   -0.0050    5.4640 c         1 ANN      0.909200
     10 O1          2.3050   -0.0120    6.3950 o         1 ANN     -0.834300
     11 O2          4.4100   -0.0010    5.6510 o         1 ANN     -0.834300
     12 H81        -0.0860    0.0050   -1.3330 h1        1 ANN      0.028367
     13 H82        -0.5140    0.9160    0.2040 h1        1 ANN      0.028367
     14 H83        -0.5140   -0.9150    0.1990 h1        1 ANN      0.028367
     15 H6          3.8020    0.0070    0.7990 ha        1 ANN      0.116500
     16 H7          4.6330    0.0040    3.1890 ha        1 ANN      0.152000
     17 H3          0.5860   -0.0110    4.6220 ha        1 ANN      0.152000
     18 H4         -0.2790   -0.0080    2.2700 ha        1 ANN      0.116500
@<TRIPOS>BOND
     1    1    2 1   
     2    1   12 1   
     3    1   13 1   
     4    1   14 1   
     5    2    3 1   
     6    3    4 ar  
     7    3    8 ar  
     8    4    5 ar  
     9    4   15 1   
    10    5    6 ar  
    11    5   16 1   
    12    6    7 ar  
    13    6    9 1   
    14    7    8 ar  
    15    7   17 1   
    16    8   18 1   
    17    9   10 1   
    18    9   11 1   
@<TRIPOS>SUBSTRUCTURE
     1 ANN         1 TEMP              0 ****  ****    0 ROOT
