@<TRIPOS>MOLECULE
molecule
   18    18     1     0     0
SMALL
bcc


@<TRIPOS>ATOM
      1 C8           0.0000     0.0000     0.0000 c3         1 ANN       0.113700
      2 O3           1.4280     0.0000     0.0000 os         1 ANN      -0.318900
      3 C5           1.8200     0.0000     1.2990 ca         1 ANN       0.080100
      4 C6           3.1740    -0.0010     1.6150 ca         1 ANN      -0.218500
      5 C7           3.5770    -0.0010     2.9300 ca         1 ANN      -0.070000
      6 C2           2.6220    -0.0000     3.9510 ca         1 ANN      -0.132600
      7 C3           1.2620     0.0010     3.6290 ca         1 ANN      -0.070000
      8 C4           0.8680     0.0050     2.3100 ca         1 ANN      -0.218500
      9 C1           3.0480    -0.0000     5.3630 c          1 ANN       0.885200
     10 O1           2.1260     0.0010     6.3440 o          1 ANN      -0.841300
     11 O2           4.2310    -0.0010     5.6400 o          1 ANN      -0.841300
     12 H81         -0.3610     0.8860     0.5090 h1         1 ANN       0.032367
     13 H82         -0.3610    -0.8830     0.5130 h1         1 ANN       0.032367
     14 H83         -0.3610    -0.0020    -1.0210 h1         1 ANN       0.032367
     15 H6           3.9140    -0.0020     0.8230 ha         1 ANN       0.116500
     16 H7           4.6320    -0.0020     3.1750 ha         1 ANN       0.151500
     17 H3           0.5190     0.0030     4.4170 ha         1 ANN       0.151500
     18 H4          -0.1860     0.0060     2.0610 ha         1 ANN       0.116500
@<TRIPOS>BOND
     1     1     2 1
     2     1    12 1
     3     1    13 1
     4     1    14 1
     5     2     3 1
     6     3     4 ar
     7     3     8 ar
     8     4     5 ar
     9     4    15 1
    10     5     6 ar
    11     5    16 1
    12     6     7 ar
    13     6     9 1
    14     7     8 ar
    15     7    17 1
    16     8    18 1
    17     9    10 1
    18     9    11 1
@<TRIPOS>SUBSTRUCTURE
     1 ANN         1 TEMP              0 ****  ****    0 ROOT
