@<TRIPOS>MOLECULE
ANO
   49    52     1     0     0
SMALL
bcc


@<TRIPOS>ATOM
      1 C1          0.1140   -0.0220    0.0360 c3        1 ANO     -0.070400
      2 C2          1.6160   -0.1390    0.1450 c3        1 ANO     -0.182400
      3 C3          2.0500   -0.1830    1.5810 c         1 ANO      0.571100
      4 O3          2.8580   -1.0160    2.0030 o         1 ANO     -0.532100
      5 C4          1.4650    0.8830    2.4590 c3        1 ANO     -0.181400
      6 C5         -0.0400    1.0360    2.2910 c3        1 ANO     -0.046700
      7 C6         -0.5310    2.2120    3.1230 c3        1 ANO     -0.074400
      8 C7         -0.1290    3.5490    2.5410 c3        1 ANO     -0.074400
      9 C8         -0.5660    3.6790    1.0930 c3        1 ANO     -0.046700
     10 C9         -0.0210    2.5100    0.2500 c3        1 ANO     -0.046700
     11 C10        -0.4810    1.1570    0.8180 c3        1 ANO     -0.039000
     12 C11        -0.3490    2.6720   -1.2320 c3        1 ANO     -0.075400
     13 C12         0.0020    4.0360   -1.8080 c3        1 ANO     -0.056400
     14 C13        -0.5860    5.1440   -0.9560 c3        1 ANO     -0.152000
     15 C14        -0.0450    4.9610    0.4800 c3        1 ANO     -0.064700
     16 C15        -0.3100    6.3010    1.1600 c3        1 ANO     -0.072400
     17 C16        -0.0930    7.3320    0.0490 c3        1 ANO     -0.188400
     18 C17        -0.1450    6.5720   -1.2630 c         1 ANO      0.577100
     19 O17         0.1120    7.0380   -2.3690 o         1 ANO     -0.518100
     20 C18        -2.1070    5.1450   -1.0520 c3        1 ANO     -0.083100
     21 C19        -1.9980    1.0000    0.7430 c3        1 ANO     -0.089100
     22 H11        -0.3490   -0.9680    0.4280 hc        1 ANO      0.049200
     23 H12        -0.1740    0.0590   -1.0440 hc        1 ANO      0.049200
     24 H21         1.9630   -1.0650   -0.3880 hc        1 ANO      0.070200
     25 H22         2.1150    0.7390   -0.3460 hc        1 ANO      0.070200
     26 H41         1.9860    1.8460    2.2100 hc        1 ANO      0.070700
     27 H42         1.6910    0.6490    3.5350 hc        1 ANO      0.070700
     28 H5         -0.5190    0.1000    2.7030 hc        1 ANO      0.052700
     29 H61        -0.1220    2.1230    4.1640 hc        1 ANO      0.044700
     30 H62        -1.6500    2.1600    3.1990 hc        1 ANO      0.044700
     31 H71        -0.5980    4.3750    3.1400 hc        1 ANO      0.041700
     32 H72         0.9830    3.6800    2.6130 hc        1 ANO      0.041700
     33 H8         -1.6900    3.6800    1.0580 hc        1 ANO      0.057700
     34 H9          1.1040    2.5400    0.3420 hc        1 ANO      0.044700
     35 H111        0.2260    1.9010   -1.8130 hc        1 ANO      0.043700
     36 H112       -1.4390    2.4710   -1.4000 hc        1 ANO      0.043700
     37 H121        1.1160    4.1540   -1.8570 hc        1 ANO      0.051700
     38 H122       -0.3910    4.1100   -2.8550 hc        1 ANO      0.051700
     39 H14         1.0790    4.8590    0.4050 hc        1 ANO      0.050700
     40 H151       -1.3540    6.3510    1.5550 hc        1 ANO      0.049700
     41 H152        0.3900    6.4670    2.0140 hc        1 ANO      0.049700
     42 H161        0.9000    7.8370    0.1520 hc        1 ANO      0.075200
     43 H162       -0.8850    8.1210    0.0600 hc        1 ANO      0.075200
     44 H181       -2.5270    4.1400   -0.8120 hc        1 ANO      0.043700
     45 H182       -2.5420    5.8890   -0.3420 hc        1 ANO      0.043700
     46 H183       -2.4130    5.4170   -2.0920 hc        1 ANO      0.043700
     47 H191       -2.3120    0.0610    1.2620 hc        1 ANO      0.037700
     48 H192       -2.5220    1.8570    1.2260 hc        1 ANO      0.037700
     49 H193       -2.3300    0.9350   -0.3220 hc        1 ANO      0.037700
@<TRIPOS>BOND
     1    1    2 1   
     2    1   11 1   
     3    1   22 1   
     4    1   23 1   
     5    2    3 1   
     6    2   24 1   
     7    2   25 1   
     8    3    4 2   
     9    3    5 1   
    10    5    6 1   
    11    5   26 1   
    12    5   27 1   
    13    6    7 1   
    14    6   11 1   
    15    6   28 1   
    16    7    8 1   
    17    7   29 1   
    18    7   30 1   
    19    8    9 1   
    20    8   31 1   
    21    8   32 1   
    22    9   10 1   
    23    9   15 1   
    24    9   33 1   
    25   10   11 1   
    26   10   12 1   
    27   10   34 1   
    28   11   21 1   
    29   12   13 1   
    30   12   35 1   
    31   12   36 1   
    32   13   14 1   
    33   13   37 1   
    34   13   38 1   
    35   14   15 1   
    36   14   18 1   
    37   14   20 1   
    38   15   16 1   
    39   15   39 1   
    40   16   17 1   
    41   16   40 1   
    42   16   41 1   
    43   17   18 1   
    44   17   42 1   
    45   17   43 1   
    46   18   19 2   
    47   20   44 1   
    48   20   45 1   
    49   20   46 1   
    50   21   47 1   
    51   21   48 1   
    52   21   49 1   
@<TRIPOS>SUBSTRUCTURE
     1 ANO         1 TEMP              0 ****  ****    0 ROOT
