@<TRIPOS>MOLECULE
molecule
   49    52     1     0     0
SMALL
bcc


@<TRIPOS>ATOM
      1 C1           0.0000     0.0000     0.0000 c3         1 ANO      -0.065400
      2 C2           1.5310     0.0000     0.0000 c3         1 ANO      -0.184400
      3 C3           2.0100     0.0000     1.4360 c          1 ANO       0.568100
      4 O3           2.8160    -0.8130     1.8200 o          1 ANO      -0.523100
      5 C4           1.4510     1.0430     2.3760 c3         1 ANO      -0.182400
      6 C5          -0.0660     1.0180     2.2900 c3         1 ANO      -0.052700
      7 C6          -0.6290     2.1800     3.1130 c3         1 ANO      -0.078400
      8 C7          -0.0740     3.4990     2.5710 c3         1 ANO      -0.079400
      9 C8          -0.4890     3.6670     1.1090 c3         1 ANO      -0.059700
     10 C9           0.0460     2.4870     0.2850 c3         1 ANO      -0.056700
     11 C10         -0.5110     1.1730     0.8350 c3         1 ANO      -0.058000
     12 C11         -0.3150     2.6240    -1.1890 c3         1 ANO      -0.085400
     13 C12          0.1650     3.9690    -1.7590 c3         1 ANO      -0.054400
     14 C13         -0.4590     5.0660    -0.9200 c3         1 ANO      -0.181000
     15 C14          0.0780     4.9540     0.5420 c3         1 ANO      -0.064700
     16 C15         -0.4140     6.2770     1.1410 c3         1 ANO      -0.073400
     17 C16         -0.1550     7.2860    -0.0120 c3         1 ANO      -0.192400
     18 C17         -0.1230     6.4800    -1.2880 c          1 ANO       0.590100
     19 O17          0.1200     6.8870    -2.3990 o          1 ANO      -0.508100
     20 C18         -1.9790     4.8900    -0.8950 c3         1 ANO      -0.082100
     21 C19         -2.0390     1.2090     0.7730 c3         1 ANO      -0.087100
     22 H11         -0.3600     0.0990    -1.0170 hc         1 ANO       0.051700
     23 H12         -0.3590    -0.9280     0.4270 hc         1 ANO       0.051700
     24 H21          1.8950    -0.8870    -0.5040 hc         1 ANO       0.069700
     25 H22          1.8950     0.8870    -0.5040 hc         1 ANO       0.069700
     26 H41          1.7600     0.8190     3.3900 hc         1 ANO       0.072200
     27 H42          1.8140     2.0220     2.0880 hc         1 ANO       0.072200
     28 H5          -0.4370     0.0790     2.6850 hc         1 ANO       0.058700
     29 H61         -0.3340     2.0640     4.1490 hc         1 ANO       0.047200
     30 H62         -1.7100     2.1850     3.0370 hc         1 ANO       0.047200
     31 H71         -0.4710     4.3220     3.1530 hc         1 ANO       0.044700
     32 H72          1.0070     3.4900     2.6390 hc         1 ANO       0.044700
     33 H8          -1.5700     3.6900     1.0430 hc         1 ANO       0.064700
     34 H9           1.1250     2.4670     0.3740 hc         1 ANO       0.052700
     35 H111         0.1520     1.8190    -1.7440 hc         1 ANO       0.048200
     36 H112        -1.3910     2.5590    -1.2970 hc         1 ANO       0.048200
     37 H121         1.2450     4.0300    -1.6970 hc         1 ANO       0.053200
     38 H122        -0.1560     4.0670    -2.7890 hc         1 ANO       0.053200
     39 H14          1.1610     4.9210     0.5410 hc         1 ANO       0.060700
     40 H151         0.1660     6.5400     2.0170 hc         1 ANO       0.052200
     41 H152        -1.4710     6.2220     1.3720 hc         1 ANO       0.052200
     42 H161        -0.9570     8.0130    -0.0540 hc         1 ANO       0.073200
     43 H162         0.7970     7.7810     0.1370 hc         1 ANO       0.073200
     44 H181        -2.4460     5.7090    -1.4270 hc         1 ANO       0.044367
     45 H182        -2.3240     4.8830     0.1320 hc         1 ANO       0.044367
     46 H183        -2.2420     3.9530    -1.3700 hc         1 ANO       0.044367
     47 H191        -2.4430     0.3670     1.3230 hc         1 ANO       0.038700
     48 H192        -2.3970     2.1320     1.2130 hc         1 ANO       0.038700
     49 H193        -2.3610     1.1530    -0.2600 hc         1 ANO       0.038700
@<TRIPOS>BOND
     1     1     2 1
     2     1    11 1
     3     1    22 1
     4     1    23 1
     5     2     3 1
     6     2    24 1
     7     2    25 1
     8     3     4 2
     9     3     5 1
    10     5     6 1
    11     5    26 1
    12     5    27 1
    13     6     7 1
    14     6    11 1
    15     6    28 1
    16     7     8 1
    17     7    29 1
    18     7    30 1
    19     8     9 1
    20     8    31 1
    21     8    32 1
    22     9    10 1
    23     9    15 1
    24     9    33 1
    25    10    11 1
    26    10    12 1
    27    10    34 1
    28    11    21 1
    29    12    13 1
    30    12    35 1
    31    12    36 1
    32    13    14 1
    33    13    37 1
    34    13    38 1
    35    14    15 1
    36    14    18 1
    37    14    20 1
    38    15    16 1
    39    15    39 1
    40    16    17 1
    41    16    40 1
    42    16    41 1
    43    17    18 1
    44    17    42 1
    45    17    43 1
    46    18    19 2
    47    20    44 1
    48    20    45 1
    49    20    46 1
    50    21    47 1
    51    21    48 1
    52    21    49 1
@<TRIPOS>SUBSTRUCTURE
     1 ANO         1 TEMP              0 ****  ****    0 ROOT
