@<TRIPOS>MOLECULE
ANP
   45    46     1     0     0
SMALL
bcc


@<TRIPOS>ATOM
      1 PG         -0.7720    1.0390   -1.4190 p4        1 ANP      1.528300
      2 O1G         0.2660    0.1720   -2.0170 o         1 ANP     -0.828833
      3 O2G        -0.4380    1.8520   -0.2330 o         1 ANP     -0.828833
      4 O3G        -1.9520    1.3990   -2.2320 o         1 ANP     -0.877633
      5 PB         -2.6640   -2.0720    0.3730 p5        1 ANP      1.557700
      6 O1B        -3.8650   -1.4460    0.9800 o         1 ANP     -0.873500
      7 O2B        -1.6050   -2.6820    1.2140 o         1 ANP     -0.873500
      8 N3B        -2.0430   -1.1640   -0.8110 n3        1 ANP     -1.099900
      9 PA         -4.0030   -4.6960   -1.0880 p5        1 ANP      1.626800
     10 O1A        -4.8460   -4.4930   -2.2980 o         1 ANP     -0.920000
     11 O2A        -4.5340   -5.7160   -0.1350 o         1 ANP     -0.920000
     12 O3A        -3.3320   -3.4220   -0.4730 os        1 ANP     -0.815800
     13 O5'        -2.7110   -5.5180   -1.8100 os        1 ANP     -0.577200
     14 C5'        -2.5780   -6.8670   -1.5780 c3        1 ANP      0.211400
     15 C4'        -3.2560   -7.7220   -2.6750 c3        1 ANP      0.061100
     16 O4'        -3.1400   -9.1160   -2.3060 os        1 ANP     -0.430600
     17 C3'        -4.7570   -7.4180   -2.8720 c3        1 ANP      0.082100
     18 O3'        -4.9990   -6.8220   -4.1250 oh        1 ANP     -0.653800
     19 C2'        -5.4760   -8.7730   -2.7740 c3        1 ANP      0.110100
     20 O2'        -5.8020   -9.3680   -4.0130 oh        1 ANP     -0.616800
     21 C1'        -4.4240   -9.6830   -2.0540 c3        1 ANP      0.221800
     22 N9         -4.6790   -9.8300   -0.6310 na        1 ANP     -0.275000
     23 C8         -4.8670   -8.8250    0.3600 cc        1 ANP      0.470700
     24 N7         -5.0460   -9.3310    1.5930 nd        1 ANP     -0.587100
     25 C5         -4.9510  -10.7210    1.4490 ca        1 ANP     -0.192200
     26 C6         -5.0280  -11.7980    2.3820 ca        1 ANP      0.684200
     27 N6         -5.3500  -11.5380    3.7180 nh        1 ANP     -0.924500
     28 N1         -4.8470  -13.0830    1.9390 nb        1 ANP     -0.804000
     29 C2         -4.6400  -13.2530    0.6030 ca        1 ANP      0.631900
     30 N3         -4.5580  -12.3450   -0.3930 nb        1 ANP     -0.717000
     31 C4         -4.7070  -11.0570    0.0450 ca        1 ANP      0.428800
     32 HNB1       -2.6490   -0.6740   -1.4250 hn        1 ANP      0.412300
     33 H5'1       -1.4800   -7.1230   -1.6000 h1        1 ANP      0.023700
     34 H5'2       -2.9980   -7.1530   -0.5740 h1        1 ANP      0.023700
     35 H4'        -2.7030   -7.6210   -3.6460 h1        1 ANP      0.061700
     36 H3'        -5.1090   -6.7300   -2.0370 h1        1 ANP      0.143700
     37 HO3'       -5.0070   -5.8560   -3.9560 ho        1 ANP      0.492000
     38 H2'        -6.4390   -8.6960   -2.2070 h1        1 ANP      0.080700
     39 HO2'       -5.3140   -8.8960   -4.7000 ho        1 ANP      0.425000
     40 H1'        -4.3960  -10.7140   -2.5140 h2        1 ANP      0.096700
     41 H8         -4.8520   -7.7180    0.1260 h5        1 ANP      0.197800
     42 HN61       -5.1950  -10.5910    3.9880 hn        1 ANP      0.404800
     43 HN62       -5.0320  -12.2110    4.3770 hn        1 ANP      0.404800
     44 H2         -4.5110  -14.3090    0.2900 h5        1 ANP      0.021100
     45 H3B2       -1.2170   -1.4580   -1.2740 hn        1 ANP      0.412300
@<TRIPOS>BOND
     1    1    2 1   
     2    1    3 1   
     3    1    4 2   
     4    5    6 1   
     5    5    7 1   
     6    5    8 1   
     7    5   12 1   
     8    8   32 1   
     9    8   45 1   
    10    9   10 1   
    11    9   11 1   
    12    9   12 1   
    13    9   13 1   
    14   13   14 1   
    15   14   15 1   
    16   14   33 1   
    17   14   34 1   
    18   15   16 1   
    19   15   17 1   
    20   15   35 1   
    21   16   21 1   
    22   17   18 1   
    23   17   19 1   
    24   17   36 1   
    25   18   37 1   
    26   19   20 1   
    27   19   21 1   
    28   19   38 1   
    29   20   39 1   
    30   21   22 1   
    31   21   40 1   
    32   22   23 1   
    33   22   31 1   
    34   23   24 2   
    35   23   41 1   
    36   24   25 1   
    37   25   26 ar  
    38   25   31 ar  
    39   26   27 1   
    40   26   28 ar  
    41   27   42 1   
    42   27   43 1   
    43   28   29 ar  
    44   29   30 ar  
    45   29   44 1   
    46   30   31 ar  
@<TRIPOS>SUBSTRUCTURE
     1 ANP         1 TEMP              0 ****  ****    0 ROOT
