@<TRIPOS>MOLECULE
molecule
   44    46     1     0     0
SMALL
bcc


@<TRIPOS>ATOM
      1 PG           0.0000     0.0000     0.0000 p5         1 ANP       1.205800
      2 O1G          1.4800     0.0000     0.0000 o          1 ANP      -0.802833
      3 O2G         -0.5360     0.0000     1.5190 o          1 ANP      -0.802833
      4 O3G         -0.5360     1.3150    -0.7580 o          1 ANP      -0.802833
      5 PB          -0.0220    -1.4120    -2.3870 p5         1 ANP       1.352700
      6 O1B         -0.5150    -0.2160    -3.1040 o          1 ANP      -0.822000
      7 O2B          1.5890    -1.4250    -2.4090 o          1 ANP      -0.822000
      8 N3B         -0.5610    -1.3740    -0.7940 n7         1 ANP      -0.921400
      9 PA          -0.4290    -3.3510    -4.5910 p5         1 ANP       1.434800
     10 O1A         -0.5070    -2.2590    -5.5870 o          1 ANP      -0.853500
     11 O2A          0.9910    -4.0970    -4.7240 o          1 ANP      -0.853500
     12 O3A         -0.5780    -2.7390    -3.1100 os         1 ANP      -0.721800
     13 O5'         -1.6170    -4.4050    -4.8590 os         1 ANP      -0.586200
     14 C5'         -1.8230    -5.0430    -6.1210 c3         1 ANP       0.235400
     15 C4'         -3.0300    -5.9780    -6.0280 c3         1 ANP       0.118100
     16 O4'         -4.2280    -5.2110    -5.8290 os         1 ANP      -0.366600
     17 C3'         -3.1960    -6.7510    -7.3510 c3         1 ANP       0.075100
     18 O3'         -3.0980    -8.1590    -7.1230 oh         1 ANP      -0.590800
     19 C2'         -4.6180    -6.3790    -7.8330 c3         1 ANP       0.080100
     20 O2'         -5.2920    -7.5200    -8.3660 oh         1 ANP      -0.573800
     21 C1'         -5.2910    -5.9020    -6.5210 c3         1 ANP       0.263800
     22 N9          -6.3980    -4.9870    -6.8120 na         1 ANP      -0.259000
     23 C8          -6.3170    -3.6300    -6.9160 cc         1 ANP       0.388700
     24 N7          -7.4900    -3.1340    -7.1820 nd         1 ANP      -0.611100
     25 C5          -8.3960    -4.1390    -7.2640 ca         1 ANP      -0.208200
     26 C6          -9.7770    -4.2050    -7.5200 ca         1 ANP       0.651200
     27 N6         -10.5080    -3.0560    -7.7600 nv         1 ANP      -1.031500
     28 N1         -10.3620    -5.3980    -7.5250 nb         1 ANP      -0.815000
     29 C2          -9.6720    -6.5000    -7.2960 ca         1 ANP       0.585900
     30 N3          -8.3780    -6.4850    -7.0530 nb         1 ANP      -0.805000
     31 C4          -7.7060    -5.3400    -7.0330 ca         1 ANP       0.471800
     32 HNB1        -0.6870    -2.2280    -0.2870 hn         1 ANP       0.361800
     33 H5'1        -2.0050    -4.2910    -6.8800 h1         1 ANP       0.025200
     34 H5'2        -0.9410    -5.6150    -6.3840 h1         1 ANP       0.025200
     35 H4'         -2.9000    -6.6760    -5.2100 h1         1 ANP       0.075700
     36 H3'         -2.4560    -6.4260    -8.0730 h1         1 ANP       0.044700
     37 HO3'        -2.3750    -8.5080    -7.6180 ho         1 ANP       0.384000
     38 H2'         -4.5790    -5.5740    -8.5570 h1         1 ANP       0.055700
     39 HO2'        -5.1880    -7.5380    -9.3030 ho         1 ANP       0.378000
     40 H1'         -5.6320    -6.7510    -5.9400 h2         1 ANP       0.090700
     41 H8          -5.4100    -3.0500    -6.7940 h5         1 ANP       0.102800
     42 HN61       -11.2530    -3.0670    -8.4290 hn         1 ANP       0.414800
     43 HN62       -10.3250    -2.2260    -7.2310 hn         1 ANP       0.414800
     44 H2         -10.2200    -7.4260    -7.1670 h5         1 ANP       0.013100
@<TRIPOS>BOND
     1     1     2 1
     2     1     3 1
     3     1     4 1
     4     1     8 1
     5     5     6 1
     6     5     7 1
     7     5     8 1
     8     5    12 1
     9     8    32 1
    10     9    10 1
    11     9    11 1
    12     9    12 1
    13     9    13 1
    14    13    14 1
    15    14    15 1
    16    14    33 1
    17    14    34 1
    18    15    16 1
    19    15    17 1
    20    15    35 1
    21    16    21 1
    22    17    18 1
    23    17    19 1
    24    17    36 1
    25    18    37 1
    26    19    20 1
    27    19    21 1
    28    19    38 1
    29    20    39 1
    30    21    22 1
    31    21    40 1
    32    22    23 1
    33    22    31 1
    34    23    24 2
    35    23    41 1
    36    24    25 1
    37    25    26 ar
    38    25    31 ar
    39    26    27 1
    40    26    28 ar
    41    27    42 1
    42    27    43 1
    43    28    29 ar
    44    29    30 ar
    45    29    44 1
    46    30    31 ar
@<TRIPOS>SUBSTRUCTURE
     1 ANP         1 TEMP              0 ****  ****    0 ROOT
