@<TRIPOS>MOLECULE
molecule
   20    22     1     0     0
SMALL
bcc


@<TRIPOS>ATOM
      1 O1           0.0000     0.0000     0.0000 o          1 ANQ      -0.211000
      2 C1           1.2060     0.0000     0.0000 c          1 ANQ       0.242000
      3 C81          2.0900     0.0000     1.1790 ca         1 ANQ      -0.178000
      4 C8           1.9060    -0.0110     2.5610 ca         1 ANQ      -0.027000
      5 C82          3.3830    -0.0040     0.7060 ca         1 ANQ       0.001000
      6 C21          3.4770     0.0010    -0.6680 ca         1 ANQ      -0.178000
      7 C2           2.0980     0.0040    -1.1880 c          1 ANQ       0.242000
      8 O2           1.7620     0.0080    -2.3460 o          1 ANQ      -0.211000
      9 C3           4.7530     0.0020    -1.2290 ca         1 ANQ      -0.027000
     10 C51          4.5540    -0.0090     1.5850 ca         1 ANQ      -0.061000
     11 C6           4.3250    -0.0130     2.9580 ca         1 ANQ      -0.071000
     12 C7           3.0050    -0.0140     3.4200 ca         1 ANQ      -0.150000
     13 C5           5.8090    -0.0070     0.9830 ca         1 ANQ      -0.071000
     14 C4           5.8840    -0.0020    -0.4130 ca         1 ANQ      -0.150000
     15 H8           0.9030    -0.0110     2.9700 ha         1 ANQ       0.146000
     16 H3           4.8660     0.0050    -2.3070 ha         1 ANQ       0.146000
     17 H6           5.1540    -0.0160     3.6560 ha         1 ANQ       0.141000
     18 H7           2.8290    -0.0170     4.4890 ha         1 ANQ       0.138000
     19 H5           6.7090    -0.0100     1.5850 ha         1 ANQ       0.141000
     20 H4           6.8620    -0.0020    -0.8800 ha         1 ANQ       0.138000
@<TRIPOS>BOND
     1     1     2 2
     2     2     3 1
     3     2     7 1
     4     3     4 ar
     5     3     5 ar
     6     4    12 ar
     7     4    15 1
     8     5     6 ar
     9     5    10 ar
    10     6     7 1
    11     6     9 ar
    12     7     8 2
    13     9    14 ar
    14     9    16 1
    15    10    11 ar
    16    10    13 ar
    17    11    12 ar
    18    11    17 1
    19    12    18 1
    20    13    14 ar
    21    13    19 1
    22    14    20 1
@<TRIPOS>SUBSTRUCTURE
     1 ANQ         1 TEMP              0 ****  ****    0 ROOT
