@<TRIPOS>MOLECULE
ANQ
   20    22     1     0     0
SMALL
bcc


@<TRIPOS>ATOM
      1 O1         -0.0240    0.0010    0.0010 o         1 ANQ     -0.220000
      2 C1          1.1990    0.0000    0.0350 c         1 ANQ      0.236000
      3 C81         2.0870   -0.0050    1.2220 ca        1 ANQ     -0.161000
      4 C8          1.8660   -0.0100    2.5750 ca        1 ANQ     -0.032000
      5 C82         3.4350   -0.0040    0.7450 ca        1 ANQ     -0.012000
      6 C21         3.5180    0.0010   -0.6830 ca        1 ANQ     -0.161000
      7 C2          2.1300    0.0040   -1.2040 c         1 ANQ      0.236000
      8 O2          1.7560    0.0080   -2.3700 o         1 ANQ     -0.220000
      9 C3          4.7550    0.0020   -1.2720 ca        1 ANQ     -0.032000
     10 C51         4.5530   -0.0080    1.5850 ca        1 ANQ     -0.052000
     11 C6          4.2890   -0.0130    2.9840 ca        1 ANQ     -0.077000
     12 C7          2.9910   -0.0140    3.4480 ca        1 ANQ     -0.148000
     13 C5          5.8230   -0.0070    0.9410 ca        1 ANQ     -0.077000
     14 C4          5.9070   -0.0020   -0.4340 ca        1 ANQ     -0.148000
     15 H8          0.8490   -0.0100    2.9950 ha        1 ANQ      0.153000
     16 H3          4.8750    0.0060   -2.3660 ha        1 ANQ      0.153000
     17 H6          5.1360   -0.0160    3.6860 ha        1 ANQ      0.140000
     18 H7          2.8000   -0.0170    4.5330 ha        1 ANQ      0.141000
     19 H5          6.7330   -0.0100    1.5600 ha        1 ANQ      0.140000
     20 H4          6.8960   -0.0010   -0.9200 ha        1 ANQ      0.141000
@<TRIPOS>BOND
     1    1    2 2   
     2    2    3 1   
     3    2    7 1   
     4    3    4 ar  
     5    3    5 ar  
     6    4   12 ar  
     7    4   15 1   
     8    5    6 ar  
     9    5   10 ar  
    10    6    7 1   
    11    6    9 ar  
    12    7    8 2   
    13    9   14 ar  
    14    9   16 1   
    15   10   11 ar  
    16   10   13 ar  
    17   11   12 ar  
    18   11   17 1   
    19   12   18 1   
    20   13   14 ar  
    21   13   19 1   
    22   14   20 1   
@<TRIPOS>SUBSTRUCTURE
     1 ANQ         1 TEMP              0 ****  ****    0 ROOT
