@<TRIPOS>MOLECULE
molecule
   48    48     1     0     0
SMALL
bcc


@<TRIPOS>ATOM
      1 C15          0.0000     0.0000     0.0000 c2         1 ANR      -0.217000
      2 C14          1.3360     0.0000     0.0000 ce         1 ANR      -0.130000
      3 C13          2.0660     0.0000     1.2650 ce         1 ANR      -0.086200
      4 C20          1.3130     0.0000     2.5710 c3         1 ANR      -0.056900
      5 C12          3.4240    -0.0010     1.2650 cf         1 ANR      -0.134000
      6 C11          4.1270    -0.0010     2.4850 cf         1 ANR      -0.138000
      7 C10          5.4890    -0.0010     2.4840 ce         1 ANR      -0.119000
      8 C9           6.1920    -0.0010     3.7030 ce         1 ANR      -0.100200
      9 C19          5.4390    -0.0010     5.0080 c3         1 ANR      -0.056900
     10 C8           7.5540    -0.0020     3.7020 cf         1 ANR      -0.130000
     11 C7           8.2570    -0.0020     4.9220 cf         1 ANR      -0.144000
     12 C6           9.6100    -0.1260     4.9250 ce         1 ANR      -0.053200
     13 C1          10.3400    -0.7680     3.7630 c3         1 ANR      -0.026800
     14 C17         10.9800     0.3130     2.8910 c3         1 ANR      -0.083600
     15 C18          9.3620    -1.6000     2.9290 c3         1 ANR      -0.083600
     16 C2          11.4290    -1.6760     4.3530 c3         1 ANR      -0.065400
     17 C3          12.4120    -0.8210     5.1510 c3         1 ANR      -0.047200
     18 C4          11.6970     0.0310     6.1570 c2         1 ANR      -0.156200
     19 C5          10.4120     0.3600     6.0500 ce         1 ANR      -0.093200
     20 C16          9.7750     1.2350     7.0990 c3         1 ANR      -0.049900
     21 H151        -0.5420     0.0000    -0.9380 ha         1 ANR       0.116000
     22 H152        -0.5420     0.0000     0.9380 ha         1 ANR       0.116000
     23 H14          1.8780    -0.0000    -0.9380 ha         1 ANR       0.128000
     24 H201         1.6150     0.8570     3.1620 hc         1 ANR       0.044700
     25 H202         0.2490     0.0550     2.3730 hc         1 ANR       0.044700
     26 H203         1.5330    -0.9100     3.1150 hc         1 ANR       0.044700
     27 H12          3.9660    -0.0010     0.3270 ha         1 ANR       0.128000
     28 H11          3.5860    -0.0000     3.4230 ha         1 ANR       0.133000
     29 H10          6.0310    -0.0010     1.5460 ha         1 ANR       0.127000
     30 H191         5.0550     0.9930     5.2030 hc         1 ANR       0.044033
     31 H192         4.6140    -0.7010     4.9490 hc         1 ANR       0.044033
     32 H193         6.1050    -0.2950     5.8100 hc         1 ANR       0.044033
     33 H8           8.0960    -0.0020     2.7640 ha         1 ANR       0.145000
     34 H7           7.7780     0.4560     5.7780 ha         1 ANR       0.131000
     35 H171        10.2130     0.8050     2.3050 hc         1 ANR       0.040200
     36 H172        11.7050    -0.1420     2.2270 hc         1 ANR       0.040200
     37 H173        11.4750     1.0400     3.5220 hc         1 ANR       0.040200
     38 H181         9.8640    -2.4870     2.5630 hc         1 ANR       0.040200
     39 H182         9.0120    -1.0110     2.0900 hc         1 ANR       0.040200
     40 H183         8.5190    -1.8900     3.5440 hc         1 ANR       0.040200
     41 H21         11.9550    -2.1770     3.5500 hc         1 ANR       0.047700
     42 H22         10.9730    -2.4090     5.0080 hc         1 ANR       0.047700
     43 H31         13.1070    -1.4700     5.6680 hc         1 ANR       0.050200
     44 H32         12.9570    -0.1790     4.4680 hc         1 ANR       0.050200
     45 H4          12.2540     0.3980     7.0100 ha         1 ANR       0.122000
     46 H161         9.0560     0.6550     7.6640 hc         1 ANR       0.042033
     47 H162        10.5400     1.6120     7.7670 hc         1 ANR       0.042033
     48 H163         9.2720     2.0660     6.6190 hc         1 ANR       0.042033
@<TRIPOS>BOND
     1     1     2 2
     2     1    21 1
     3     1    22 1
     4     2     3 1
     5     2    23 1
     6     3     4 1
     7     3     5 2
     8     4    24 1
     9     4    25 1
    10     4    26 1
    11     5     6 1
    12     5    27 1
    13     6     7 2
    14     6    28 1
    15     7     8 1
    16     7    29 1
    17     8     9 1
    18     8    10 2
    19     9    30 1
    20     9    31 1
    21     9    32 1
    22    10    11 1
    23    10    33 1
    24    11    12 2
    25    11    34 1
    26    12    13 1
    27    12    19 1
    28    13    14 1
    29    13    15 1
    30    13    16 1
    31    14    35 1
    32    14    36 1
    33    14    37 1
    34    15    38 1
    35    15    39 1
    36    15    40 1
    37    16    17 1
    38    16    41 1
    39    16    42 1
    40    17    18 1
    41    17    43 1
    42    17    44 1
    43    18    19 2
    44    18    45 1
    45    19    20 1
    46    20    46 1
    47    20    47 1
    48    20    48 1
@<TRIPOS>SUBSTRUCTURE
     1 ANR         1 TEMP              0 ****  ****    0 ROOT
