@<TRIPOS>MOLECULE
ANR
   48    48     1     0     0
SMALL
bcc


@<TRIPOS>ATOM
      1 C15        -0.0600   -1.3140    2.1070 c2        1 ANR     -0.210000
      2 C14         1.2500   -1.0610    2.0980 ce        1 ANR     -0.130000
      3 C13         1.8630    0.1060    1.4820 ce        1 ANR     -0.072200
      4 C20         1.0590    0.8140    0.4510 c3        1 ANR     -0.061900
      5 C12         3.0980    0.5540    1.8000 cf        1 ANR     -0.129000
      6 C11         3.9740   -0.0120    2.7970 cf        1 ANR     -0.128000
      7 C10         5.2150    0.4640    3.0170 ce        1 ANR     -0.122000
      8 C9          6.1410   -0.0590    4.0080 ce        1 ANR     -0.081200
      9 C19         5.6790   -1.1890    4.8510 c3        1 ANR     -0.060900
     10 C8          7.3740    0.4860    4.1190 cf        1 ANR     -0.118000
     11 C7          8.3580    0.1100    5.1080 cf        1 ANR     -0.141000
     12 C6          9.6900   -0.0530    4.9390 ce        1 ANR     -0.041200
     13 C1         10.3780    0.0670    3.5980 c3        1 ANR     -0.009800
     14 C17        10.5450    1.5430    3.2480 c3        1 ANR     -0.086100
     15 C18         9.5750   -0.6250    2.4970 c3        1 ANR     -0.086100
     16 C2         11.7590   -0.6030    3.6000 c3        1 ANR     -0.069400
     17 C3         12.6190   -0.1880    4.7720 c3        1 ANR     -0.049200
     18 C4         11.8790   -0.3560    6.0400 c2        1 ANR     -0.156200
     19 C5         10.5340   -0.3230    6.1110 ce        1 ANR     -0.085200
     20 C16         9.8710   -0.5420    7.4240 c3        1 ANR     -0.058900
     21 H151       -0.8030   -0.6510    1.6460 ha        1 ANR      0.113000
     22 H152       -0.4730   -2.2120    2.5850 ha        1 ANR      0.113000
     23 H14         1.9490   -1.7690    2.5800 ha        1 ANR      0.123000
     24 H201        1.6700    1.5700   -0.1010 hc        1 ANR      0.043367
     25 H202        0.6470    0.0840   -0.2900 hc        1 ANR      0.043367
     26 H203        0.2000    1.3430    0.9350 hc        1 ANR      0.043367
     27 H12         3.5840   -0.8580    3.3890 ha        1 ANR      0.127000
     28 H11         3.4950    1.4390    1.2680 ha        1 ANR      0.122000
     29 H10         5.5910    1.3140    2.4190 ha        1 ANR      0.120000
     30 H191        4.7700   -0.8900    5.4320 hc        1 ANR      0.044367
     31 H192        6.4660   -1.5200    5.5710 hc        1 ANR      0.044367
     32 H193        5.4110   -2.0630    4.2050 hc        1 ANR      0.044367
     33 H8          7.6600    1.3180    3.4490 ha        1 ANR      0.127000
     34 H7          7.9220   -0.0160    6.1180 ha        1 ANR      0.127000
     35 H171       11.1880    2.0520    4.0050 hc        1 ANR      0.037367
     36 H172       11.0220    1.6440    2.2440 hc        1 ANR      0.037367
     37 H173        9.5550    2.0580    3.2240 hc        1 ANR      0.037367
     38 H181       10.2220   -0.7900    1.6010 hc        1 ANR      0.037367
     39 H182        8.7050   -0.0040    2.1770 hc        1 ANR      0.037367
     40 H183        9.2000   -1.6130    2.8530 hc        1 ANR      0.037367
     41 H21        12.2850   -0.3500    2.6430 hc        1 ANR      0.044200
     42 H22        11.6170   -1.7160    3.6260 hc        1 ANR      0.044200
     43 H31        12.9380    0.8840    4.6640 hc        1 ANR      0.049700
     44 H32        13.5550   -0.8090    4.7880 hc        1 ANR      0.049700
     45 H4         12.4910   -0.5190    6.9410 ha        1 ANR      0.123000
     46 H161        9.1360   -1.3830    7.3560 hc        1 ANR      0.041700
     47 H162        9.3290    0.3820    7.7490 hc        1 ANR      0.041700
     48 H163       10.6180   -0.7990    8.2150 hc        1 ANR      0.041700
@<TRIPOS>BOND
     1    1    2 2   
     2    1   21 1   
     3    1   22 1   
     4    2    3 1   
     5    2   23 1   
     6    3    4 1   
     7    3    5 2   
     8    4   24 1   
     9    4   25 1   
    10    4   26 1   
    11    5    6 1   
    12    5   28 1   
    13    6    7 2   
    14    6   27 1   
    15    7    8 1   
    16    7   29 1   
    17    8    9 1   
    18    8   10 2   
    19    9   30 1   
    20    9   31 1   
    21    9   32 1   
    22   10   11 1   
    23   10   33 1   
    24   11   12 2   
    25   11   34 1   
    26   12   13 1   
    27   12   19 1   
    28   13   14 1   
    29   13   15 1   
    30   13   16 1   
    31   14   35 1   
    32   14   36 1   
    33   14   37 1   
    34   15   38 1   
    35   15   39 1   
    36   15   40 1   
    37   16   17 1   
    38   16   41 1   
    39   16   42 1   
    40   17   18 1   
    41   17   43 1   
    42   17   44 1   
    43   18   19 2   
    44   18   45 1   
    45   19   20 1   
    46   20   46 1   
    47   20   47 1   
    48   20   48 1   
@<TRIPOS>SUBSTRUCTURE
     1 ANR         1 TEMP              0 ****  ****    0 ROOT
