@<TRIPOS>MOLECULE
molecule
   29    30     1     0     0
SMALL
bcc


@<TRIPOS>ATOM
      1 C1           0.0000     0.0000     0.0000 ca         1 ANS      -0.245500
      2 C2           1.3620     0.0000     0.0000 ca         1 ANS      -0.043000
      3 C3           2.0780     0.0000     1.1950 ca         1 ANS      -0.159000
      4 C4           1.4380    -0.0050     2.3950 ca         1 ANS      -0.097000
      5 C4A          0.0350    -0.0100     2.4350 ca         1 ANS      -0.034000
      6 C5          -0.6620    -0.0260     3.6610 ca         1 ANS       0.037600
      7 C6          -2.0410    -0.0290     3.6560 ca         1 ANS      -0.173000
      8 C7          -2.7470    -0.0230     2.4570 ca         1 ANS      -0.152000
      9 C8          -2.0990    -0.0140     1.2590 ca         1 ANS      -0.095000
     10 C8A         -0.6950    -0.0090     1.2210 ca         1 ANS       0.035000
     11 N            0.0340    -0.0330     4.8670 nh         1 ANS      -0.557000
     12 CM1         -0.3660     1.1790     5.5930 c3         1 ANS       0.130600
     13 CM2         -0.4710    -1.1740     5.6420 c3         1 ANS       0.130600
     14 S           -0.8850     0.0010    -1.5230 s6         1 ANS       1.328100
     15 O1S          0.0670    -0.3390    -2.5230 o          1 ANS      -0.708533
     16 O2S         -2.0940    -0.7000    -1.2670 o          1 ANS      -0.708533
     17 O3S         -1.2920     1.4370    -1.8120 o          1 ANS      -0.708533
     18 H2           1.8960     0.0040    -0.9430 ha         1 ANS       0.150000
     19 H3           3.1610     0.0000     1.1680 ha         1 ANS       0.108000
     20 H4           2.0080    -0.0050     3.3160 ha         1 ANS       0.130000
     21 H6          -2.5810    -0.0360     4.5950 ha         1 ANS       0.109000
     22 H7          -3.8300    -0.0250     2.4760 ha         1 ANS       0.117000
     23 H8          -2.6660    -0.0090     0.3360 ha         1 ANS       0.213000
     24 HM11        -0.3800     2.0200     4.9100 h1         1 ANS       0.032033
     25 HM12        -1.3540     1.0390     6.0140 h1         1 ANS       0.032033
     26 HM13         0.3420     1.3730     6.3900 h1         1 ANS       0.032033
     27 HM21         0.2370    -1.4210     6.4240 h1         1 ANS       0.032033
     28 HM22        -1.4240    -0.9160     6.0860 h1         1 ANS       0.032033
     29 HM23        -0.5970    -2.0280     4.9870 h1         1 ANS       0.032033
@<TRIPOS>BOND
     1     1     2 ar
     2     1    10 ar
     3     1    14 1
     4     2     3 ar
     5     2    18 1
     6     3     4 ar
     7     3    19 1
     8     4     5 ar
     9     4    20 1
    10     5     6 ar
    11     5    10 ar
    12     6     7 ar
    13     6    11 1
    14     7     8 ar
    15     7    21 1
    16     8     9 ar
    17     8    22 1
    18     9    10 ar
    19     9    23 1
    20    11    12 1
    21    11    13 1
    22    12    24 1
    23    12    25 1
    24    12    26 1
    25    13    27 1
    26    13    28 1
    27    13    29 1
    28    14    15 1
    29    14    16 1
    30    14    17 1
@<TRIPOS>SUBSTRUCTURE
     1 ANS         1 TEMP              0 ****  ****    0 ROOT
