@<TRIPOS>MOLECULE
ANT
   41    45     1     0     0
SMALL
bcc


@<TRIPOS>ATOM
      1 C1           0.0000     0.0000     0.0000 c3         1 ANT      -0.062000
      2 C2           1.5120     0.0000     0.0000 c3         1 ANT      -0.264000
      3 C3           1.9410     0.0000     1.2780 c2         1 ANT       0.030000
      4 N4           0.9380     0.0630     2.1660 n          1 ANT       0.235000
      5 C5           0.9050     0.3700     3.5020 c2         1 ANT       0.287000
      6 O5           1.8660     0.7840     4.1210 o          1 ANT      -0.264000
      7 C5A         -0.4450     0.1410     4.1200 ca         1 ANT      -0.157000
      8 C6          -1.0750     1.0920     4.9060 ca         1 ANT      -0.029000
      9 C7          -2.3200     0.7820     5.4290 ca         1 ANT      -0.081000
     10 C8          -2.8920    -0.4510     5.1600 ca         1 ANT      -0.069000
     11 C8M         -4.2450    -0.7770     5.7360 c3         1 ANT      -0.068000
     12 C9          -2.2470    -1.3920     4.3780 ca         1 ANT       0.059000
     13 C9A         -0.9870    -1.0860     3.8360 ca         1 ANT      -0.091000
     14 O9          -2.8320    -2.5930     4.1250 oh         1 ANT      -0.238000
     15 N10         -0.3500    -1.9950     3.0500 nu         1 ANT      -0.019000
     16 C11         -0.6740    -1.7440     1.6180 c3         1 ANT       0.070000
     17 O11         -2.0470    -2.0300     1.3450 oh         1 ANT      -0.289000
     18 C4A         -0.3780    -0.1740     1.4920 c3         1 ANT      -0.132000
     19 C12          2.3360     0.0000    -1.1440 c2         1 ANT       0.032000
     20 C13          1.7780    -0.0000    -2.3820 c2         1 ANT      -0.463000
     21 C14          2.6040    -0.0000    -3.5280 c3         1 ANT       0.162000
     22 O14          3.8150     0.0010    -3.4060 o          1 ANT      -0.359000
     23 N15          2.0510    -0.0000    -4.7580 nz         1 ANT       0.812000
     24 H11A        -0.3780    -0.8300    -0.5850 hc         1 ANT       0.090500
     25 H12A        -0.3780     0.9420    -0.3780 hc         1 ANT       0.090500
     26 H3           2.9100     0.4170     1.5240 h4         1 ANT       0.166000
     27 H6          -0.7370     2.1210     4.8870 ha         1 ANT       0.123000
     28 H7          -2.8040     1.4650     6.1160 ha         1 ANT       0.127000
     29 HM81        -4.6660     0.1110     6.1920 hc         1 ANT       0.059667
     30 HM82        -4.9010    -1.1220     4.9460 hc         1 ANT       0.059667
     31 HM83        -4.1420    -1.5530     6.4850 hc         1 ANT       0.059667
     32 HO9         -2.6710    -3.1800     4.8450 ho         1 ANT       0.211000
     33 HN          -0.6450    -2.9180     3.3020 hn         1 ANT       0.086000
     34 H11         -0.0170    -2.3120     0.9710 h2         1 ANT       0.065000
     35 HO1         -2.1030    -2.7330     0.7190 ho         1 ANT       0.206000
     36 H4A         -1.1820     0.4690     1.8290 h1         1 ANT       0.146000
     37 H12          1.8300    -0.8750    -0.7550 DU         1 ANT       0.229000
     38 H13          2.2860    -0.8750    -2.7700 DU         1 ANT       0.084000
     39 HN51         1.2790     0.6360    -4.7760 hn         1 ANT       0.032333
     40 HN52         2.7340     0.2850    -5.4310 hn         1 ANT       0.032333
     41 H153         1.7290    -0.9220    -4.9790 hn         1 ANT       0.032333
@<TRIPOS>BOND
     1     1     2 1   
     2     1    18 1   
     3     1    24 1   
     4     1    25 1   
     5     2     3 1   
     6     2    19 1   
     7     2    37 1   
     8     3     4 1   
     9     3    26 1   
    10     4     5 1   
    11     4    18 1   
    12     5     6 1   
    13     5     7 1   
    14     7     8 1   
    15     7    13 1   
    16     8     9 1   
    17     8    27 1   
    18     9    10 1   
    19     9    28 1   
    20    10    11 1   
    21    10    12 1   
    22    11    29 1   
    23    11    30 1   
    24    11    31 1   
    25    12    13 1   
    26    12    14 1   
    27    13    15 1   
    28    14    32 1   
    29    15    16 1   
    30    15    33 1   
    31    16    17 1   
    32    16    18 1   
    33    16    34 1   
    34    17    35 1   
    35    18    36 1   
    36    19    20 1   
    37    19    37 1   
    38    20    21 1   
    39    20    38 1   
    40    21    22 1   
    41    21    23 1   
    42    21    38 1   
    43    23    39 1   
    44    23    40 1   
    45    23    41 1   
@<TRIPOS>SUBSTRUCTURE
     1 ANT         1 TEMP              0 ****  ****    0 ROOT
