@<TRIPOS>MOLECULE
molecule
   41    43     1     0     0
SMALL
bcc


@<TRIPOS>ATOM
      1 C1           0.0000     0.0000     0.0000 c3         1 ANT      -0.043200
      2 C2           1.5120     0.0000     0.0000 ce         1 ANT      -0.331200
      3 C3           1.9410     0.0000     1.2780 c2         1 ANT       0.169600
      4 N4           0.9380     0.0630     2.1660 n          1 ANT      -0.336000
      5 C5           0.9050     0.3700     3.5020 c          1 ANT       0.742100
      6 O5           1.8660     0.7840     4.1210 o          1 ANT      -0.545500
      7 C5A         -0.4450     0.1410     4.1200 ca         1 ANT      -0.153600
      8 C6          -1.0750     1.0920     4.9060 ca         1 ANT      -0.077000
      9 C7          -2.3200     0.7820     5.4290 ca         1 ANT      -0.118000
     10 C8          -2.8920    -0.4510     5.1600 ca         1 ANT      -0.066300
     11 C8M         -4.2450    -0.7770     5.7360 c3         1 ANT      -0.053800
     12 C9          -2.2470    -1.3920     4.3780 ca         1 ANT       0.073100
     13 C9A         -0.9870    -1.0860     3.8360 ca         1 ANT       0.086600
     14 O9          -2.8320    -2.5930     4.1250 oh         1 ANT      -0.505100
     15 N10         -0.3500    -1.9950     3.0500 nu         1 ANT      -0.698600
     16 C11         -0.6740    -1.7440     1.6180 c3         1 ANT       0.355300
     17 O11         -2.0470    -2.0300     1.3450 oh         1 ANT      -0.592800
     18 C4A         -0.3780    -0.1740     1.4920 c3         1 ANT       0.076700
     19 C12          2.3360     0.0000    -1.1440 ce         1 ANT       0.160000
     20 C13          1.7780    -0.0000    -2.3820 cf         1 ANT      -0.432200
     21 C14          2.6040    -0.0000    -3.5280 c          1 ANT       0.501300
     22 O14          3.8150     0.0010    -3.4060 o          1 ANT      -0.491100
     23 N15          2.0510    -0.0000    -4.7580 nz         1 ANT      -0.670400
     24 H11A        -0.3780     0.9420    -0.3780 hc         1 ANT       0.062200
     25 H12A        -0.3780    -0.8300    -0.5850 hc         1 ANT       0.062200
     26 H3           2.9100     0.4170     1.5240 h4         1 ANT       0.191000
     27 H6          -0.5090     1.9220     5.3120 ha         1 ANT       0.163000
     28 H7          -2.8070     1.4670     6.1130 ha         1 ANT       0.154000
     29 HM81        -4.9150    -1.0730     4.9380 hc         1 ANT       0.056700
     30 HM82        -4.6440     0.0970     6.2360 hc         1 ANT       0.056700
     31 HM83        -4.1500    -1.5880     6.4480 hc         1 ANT       0.056700
     32 HO9         -2.6510    -3.1870     4.8340 ho         1 ANT       0.424000
     33 HN          -0.6450    -2.9180     3.3020 hn         1 ANT       0.390800
     34 H11         -0.0170    -2.3120     0.9710 h2         1 ANT       0.073700
     35 HO1         -2.1030    -2.7190     0.7040 ho         1 ANT       0.416000
     36 H4A         -1.1820     0.4690     1.8290 h1         1 ANT       0.130700
     37 H12          3.4140     0.0010    -1.0350 ha         1 ANT       0.162000
     38 H13          0.7010    -0.0010    -2.4910 ha         1 ANT       0.145000
     39 HN51         1.4200    -0.7730    -4.8390 hn         1 ANT       0.468467
     40 HN52         1.5510     0.8550    -4.8990 hn         1 ANT       0.468467
     41 H153         2.7710    -0.0830    -5.4480 hn         1 ANT       0.468467
@<TRIPOS>BOND
     1     1     2 1
     2     1    18 1
     3     1    24 1
     4     1    25 1
     5     2     3 2
     6     2    19 1
     7     3     4 1
     8     3    26 1
     9     4     5 1
    10     4    18 1
    11     5     6 2
    12     5     7 1
    13     7     8 ar
    14     7    13 ar
    15     8     9 ar
    16     8    27 1
    17     9    10 ar
    18     9    28 1
    19    10    11 1
    20    10    12 ar
    21    11    29 1
    22    11    30 1
    23    11    31 1
    24    12    13 ar
    25    12    14 1
    26    13    15 1
    27    14    32 1
    28    15    16 1
    29    15    33 1
    30    16    17 1
    31    16    18 1
    32    16    34 1
    33    17    35 1
    34    18    36 1
    35    19    20 2
    36    19    37 1
    37    20    21 1
    38    20    38 1
    39    21    22 2
    40    21    23 1
    41    23    39 1
    42    23    40 1
    43    41    23 1
@<TRIPOS>SUBSTRUCTURE
     1 ANT         1 TEMP              0 ****  ****    0 ROOT
