@<TRIPOS>MOLECULE
ANU
   26    28     1     0     0
SMALL
bcc


@<TRIPOS>ATOM
      1 O3'          0.0000     0.0000     0.0000 oh         1 ANU      -0.567800
      2 C3'          1.4290     0.0000     0.0000 c3         1 ANU       0.141100
      3 C2'          1.9810     0.0000     1.4450 c3         1 ANU       0.108100
      4 O2           2.5840     1.2870     1.7350 os         1 ANU      -0.346400
      5 C2           3.9190     1.1540     1.8840 cc         1 ANU       0.669500
      6 N3           4.7980     2.1050     2.1690 nd         1 ANU      -0.627100
      7 C4           6.1030     1.8360     2.2900 c          1 ANU       0.711700
      8 O4           6.8920     2.7300     2.5520 o          1 ANU      -0.592100
      9 C5           6.5620     0.5060     2.1150 cc         1 ANU      -0.271200
     10 C6           5.6590    -0.4530     1.8240 cd         1 ANU      -0.020000
     11 N1           4.3380    -0.1220     1.7070 na         1 ANU      -0.245400
     12 C1'          3.1800    -0.9760     1.3930 c3         1 ANU       0.311300
     13 O4'          3.2930    -1.4330     0.0340 os         1 ANU      -0.382600
     14 C4'          1.9810    -1.3370    -0.5580 c3         1 ANU       0.165100
     15 C5'          2.0800    -1.2830    -2.0840 c3         1 ANU       0.226400
     16 O5'          2.4800    -2.5630    -2.5800 oh         1 ANU      -0.582800
     17 H1          -0.3140     0.8620    -0.2160 ho         1 ANU       0.406000
     18 H2           1.8220     0.8400    -0.5600 h1         1 ANU       0.041700
     19 H3           1.2390    -0.2910     2.1780 h1         1 ANU       0.078700
     20 H4           7.6150     0.2670     2.2090 ha         1 ANU       0.143000
     21 H5           5.9790    -1.4780     1.6850 h4         1 ANU       0.135000
     22 H6           3.0710    -1.7950     2.0940 h2         1 ANU       0.055700
     23 H7           1.3600    -2.1650    -0.2400 h1         1 ANU       0.047700
     24 H8           1.1150    -1.0200    -2.4990 h1         1 ANU      -0.000300
     25 H9           2.8130    -0.5390    -2.3720 h1         1 ANU      -0.000300
     26 H10          2.4250    -2.5660    -3.5220 ho         1 ANU       0.396000
@<TRIPOS>BOND
     1     1     2 1   
     2     1    17 1   
     3     2     3 1   
     4     2    14 1   
     5     2    18 1   
     6     3     4 1   
     7     3    12 1   
     8     3    19 1   
     9     4     5 1   
    10     5     6 2   
    11     5    11 1   
    12     6     7 1   
    13     7     8 2   
    14     7     9 1   
    15     9    10 2   
    16     9    20 1   
    17    10    11 1   
    18    10    21 1   
    19    11    12 1   
    20    12    13 1   
    21    12    22 1   
    22    13    14 1   
    23    14    15 1   
    24    14    23 1   
    25    15    16 1   
    26    15    24 1   
    27    15    25 1   
    28    16    26 1   
@<TRIPOS>SUBSTRUCTURE
     1 ANU         1 TEMP              0 ****  ****    0 ROOT
