@<TRIPOS>MOLECULE
molecule
   40    42     1     0     0
SMALL
bcc


@<TRIPOS>ATOM
      1 C1           0.0000     0.0000     0.0000 c3         1 ANV       0.048100
      2 O2           1.4290     0.0000     0.0000 os         1 ANV      -0.334900
      3 C4           2.0450     0.0000     1.2110 ca         1 ANV       0.152100
      4 C5           3.4300    -0.0000     1.2860 ca         1 ANV      -0.199000
      5 C6           4.0550    -0.0010     2.5170 ca         1 ANV      -0.086500
      6 C7           3.3010    -0.0020     3.6760 ca         1 ANV      -0.159000
      7 C8           1.9200    -0.0030     3.6050 ca         1 ANV      -0.086500
      8 C9           1.2910     0.0050     2.3750 ca         1 ANV      -0.199000
      9 C16         -0.5020     0.0010    -1.4220 cc         1 ANV       0.351600
     10 C17          0.2510     0.0020    -2.5460 cd         1 ANV      -0.299600
     11 N18         -0.6270     0.0010    -3.5870 na         1 ANV       0.077400
     12 N19         -1.8200     0.0010    -3.1040 nd         1 ANV      -0.179800
     13 N20         -1.7800    -0.0050    -1.8190 nc         1 ANV      -0.341000
     14 C21         -0.2900     0.0020    -4.9480 cc         1 ANV       0.201700
     15 C22         -1.2880     0.0020    -5.9120 cc         1 ANV      -0.128500
     16 C23         -0.9530     0.0040    -7.2520 cd         1 ANV      -0.038000
     17 C24          0.3760     0.0050    -7.6330 cd         1 ANV      -0.645000
     18 C25          1.3730     0.0050    -6.6750 cd         1 ANV      -0.038000
     19 C26          1.0440     0.0100    -5.3340 cc         1 ANV      -0.128500
     20 S27          0.8110     0.0070    -9.3910 s6         1 ANV       0.954500
     21 O28          1.1820     0.0170   -11.0080 oh         1 ANV      -0.661700
     22 O29          1.3320    -1.4970    -9.8310 oh         1 ANV      -0.661700
     23 N30          2.0530     1.1430    -9.6680 nz         1 ANV      -0.688500
     24 H1          -0.3610    -0.9640    -0.3390 h1         1 ANV       0.100700
     25 H11         -0.3610     0.1880     1.0040 h1         1 ANV       0.100700
     26 H5           4.0220     0.0050     0.3780 ha         1 ANV       0.141500
     27 H6           5.1370     0.0010     2.5750 ha         1 ANV       0.139000
     28 H7           3.7920     0.0100     4.6410 ha         1 ANV       0.139000
     29 H8           1.3310    -0.0110     4.5140 ha         1 ANV       0.139000
     30 H9           0.2850     0.3770     2.5300 ha         1 ANV       0.141500
     31 H17          1.3330    -0.0090    -2.5880 h4         1 ANV       0.202000
     32 H22         -2.3290     0.0010    -5.6120 ha         1 ANV       0.178500
     33 H23         -1.7320    -0.0100    -8.0050 ha         1 ANV       0.133000
     34 H25          2.4130     0.0060    -6.9760 ha         1 ANV       0.133000
     35 H26          1.8250     0.0150    -4.5830 ha         1 ANV       0.178500
     36 H2           2.0360    -0.3620   -11.1370 ho         1 ANV       0.475500
     37 H3           1.3050    -1.5770   -10.7700 ho         1 ANV       0.475500
     38 HN30         2.1420     1.3070   -10.6510 hn         1 ANV       0.472133
     39 HN31         1.8290     2.0020    -9.2050 hn         1 ANV       0.472133
     40 H303         2.9170     0.7870    -9.3090 hn         1 ANV       0.472133
@<TRIPOS>BOND
     1     1     2 1
     2     1     9 1
     3     2     3 1
     4     3     4 ar
     5     3     8 ar
     6     4     5 ar
     7     5     6 ar
     8     6     7 ar
     9     7     8 ar
    10     9    10 2
    11     9    13 1
    12    10    11 1
    13    11    12 1
    14    11    14 2
    15    12    13 2
    16    14    15 1
    17    14    19 1
    18    15    16 2
    19    16    17 1
    20    17    18 1
    21    17    20 2
    22    18    19 2
    23    20    21 1
    24    20    22 1
    25    20    23 1
    26     1    24 1
    27     1    25 1
    28     4    26 1
    29     5    27 1
    30     6    28 1
    31     7    29 1
    32     8    30 1
    33    10    31 1
    34    15    32 1
    35    16    33 1
    36    18    34 1
    37    19    35 1
    38    21    36 1
    39    22    37 1
    40    23    38 1
    41    23    39 1
    42    40    23 1
@<TRIPOS>SUBSTRUCTURE
     1 ANV         1 TEMP              0 ****  ****    0 ROOT
