@<TRIPOS>MOLECULE
ANW
   35    37     1     0     0
SMALL
bcc


@<TRIPOS>ATOM
      1 NAA          0.0000     0.0000     0.0000 nb         1 ANW      -0.715000
      2 NAB         -2.0770     0.0050     1.0570 nv         1 ANW      -0.528500
      3 CAC          7.6180    -2.6890    -2.1540 c3         1 ANW       0.004400
      4 CAD          7.4690    -1.2800    -1.5750 c3         1 ANW       0.014600
      5 CAE          8.1510    -0.2720    -2.5020 c3         1 ANW       0.004400
      6 CAF          6.0060    -0.9400    -1.4520 ca         1 ANW      -0.153300
      7 CAG          5.4690    -0.6440    -0.2170 ca         1 ANW      -0.002000
      8 CAH          4.1160    -0.3300    -0.1140 ca         1 ANW      -0.244600
      9 CAI          3.2980    -0.3080    -1.2550 ca         1 ANW       0.190100
     10 CAJ          3.8620    -0.6130    -2.4910 ca         1 ANW      -0.158000
     11 CAK          5.2020    -0.9240    -2.5820 ca         1 ANW      -0.053000
     12 CAL          1.3270     0.0000     0.0000 ca         1 ANW       0.657600
     13 CAM         -0.7020     0.0080     1.1210 ca         1 ANW       0.568200
     14 CAN         -0.0670     0.0180     2.3800 ca         1 ANW      -0.324900
     15 CAO          1.3300     0.0140     2.4300 ca         1 ANW       0.091000
     16 CAP          2.0250     0.0000     1.2240 ca         1 ANW      -0.449900
     17 CAQ          3.5010    -0.0230     1.1960 c          1 ANW       0.675300
     18 CAR         -0.8610     0.0340     3.6190 c          1 ANW       0.996200
     19 OAS          1.9910     0.0080    -1.1720 os         1 ANW      -0.313400
     20 OAT          4.1700     0.1980     2.1880 o          1 ANW      -0.588100
     21 OAU         -2.0720    -0.0710     3.5680 o          1 ANW      -0.883800
     22 OAV         -0.2470     0.1650     4.8120 o          1 ANW      -0.883800
     23 HNAB        -2.5430    -0.4810     0.3160 hn         1 ANW       0.285800
     24 HNAA        -2.6100     0.5210     1.7290 hn         1 ANW       0.285800
     25 HAC          7.3340    -2.6810    -3.2000 hc         1 ANW       0.002033
     26 HACA         8.6490    -3.0090    -2.0630 hc         1 ANW       0.002033
     27 HACB         6.9780    -3.3730    -1.6110 hc         1 ANW       0.002033
     28 HAD          7.9320    -1.2410    -0.5960 hc         1 ANW       0.028700
     29 HAE          7.8790     0.7340    -2.2050 hc         1 ANW       0.002033
     30 HAEA         9.2260    -0.3900    -2.4340 hc         1 ANW       0.002033
     31 HAEB         7.8330    -0.4460    -3.5220 hc         1 ANW       0.002033
     32 HAG          6.0610    -0.7860     0.6780 ha         1 ANW       0.121000
     33 HAJ          3.2470    -0.6050    -3.3830 ha         1 ANW       0.114000
     34 HAK          5.6320    -1.1600    -3.5480 ha         1 ANW       0.101000
     35 HAO          1.8550     0.0210     3.3780 ha         1 ANW       0.148000
@<TRIPOS>BOND
     1     1    12 ar  
     2     1    13 ar  
     3     2    13 1   
     4     2    23 1   
     5     2    24 1   
     6     3     4 1   
     7     3    25 1   
     8     3    26 1   
     9     3    27 1   
    10     4     5 1   
    11     4     6 1   
    12     4    28 1   
    13     5    29 1   
    14     5    30 1   
    15     5    31 1   
    16     6     7 ar  
    17     6    11 ar  
    18     7     8 ar  
    19     7    32 1   
    20     8     9 ar  
    21     8    17 1   
    22     9    10 ar  
    23     9    19 1   
    24    10    11 ar  
    25    10    33 1   
    26    11    34 1   
    27    12    16 ar  
    28    12    19 1   
    29    13    14 ar  
    30    14    15 ar  
    31    14    18 1   
    32    15    16 ar  
    33    15    35 1   
    34    16    17 1   
    35    17    20 2   
    36    18    21 1   
    37    18    22 1   
@<TRIPOS>SUBSTRUCTURE
     1 ANW         1 TEMP              0 ****  ****    0 ROOT
