@<TRIPOS>MOLECULE
molecule
   35    37     1     0     0
SMALL
bcc


@<TRIPOS>ATOM
      1 NAA          0.0000     0.0000     0.0000 nb         1 ANW      -0.819000
      2 NAB         -2.0770     0.0050     1.0570 nv         1 ANW      -0.992500
      3 CAC          7.6180    -2.6890    -2.1540 c3         1 ANW      -0.085100
      4 CAD          7.4690    -1.2800    -1.5750 c3         1 ANW      -0.023400
      5 CAE          8.1510    -0.2720    -2.5020 c3         1 ANW      -0.085100
      6 CAF          6.0060    -0.9400    -1.4520 ca         1 ANW      -0.134300
      7 CAG          5.4690    -0.6440    -0.2170 ca         1 ANW      -0.041000
      8 CAH          4.1160    -0.3300    -0.1140 ca         1 ANW      -0.227600
      9 CAI          3.2980    -0.3080    -1.2550 ca         1 ANW       0.184100
     10 CAJ          3.8620    -0.6130    -2.4910 ca         1 ANW      -0.167000
     11 CAK          5.2020    -0.9240    -2.5820 ca         1 ANW      -0.083000
     12 CAL          1.3270     0.0000     0.0000 ca         1 ANW       0.701600
     13 CAM         -0.7020     0.0080     1.1210 ca         1 ANW       0.764200
     14 CAN         -0.0670     0.0180     2.3800 ca         1 ANW      -0.305900
     15 CAO          1.3300     0.0140     2.4300 ca         1 ANW       0.041000
     16 CAP          2.0250     0.0000     1.2240 ca         1 ANW      -0.417900
     17 CAQ          3.5010    -0.0230     1.1960 c          1 ANW       0.604300
     18 CAR         -0.8610     0.0340     3.6190 c          1 ANW       0.897200
     19 OAS          1.9910     0.0080    -1.1720 os         1 ANW      -0.342400
     20 OAT          4.1700     0.1980     2.1880 o          1 ANW      -0.550100
     21 OAU         -2.0720    -0.0710     3.5680 o          1 ANW      -0.835800
     22 OAV         -0.2470     0.1650     4.8120 o          1 ANW      -0.835800
     23 HNAB        -2.5430    -0.4810     0.3160 hn         1 ANW       0.447800
     24 HNAA        -2.6100     0.5210     1.7290 hn         1 ANW       0.447800
     25 HAC          7.3340    -2.6810    -3.2000 hc         1 ANW       0.033200
     26 HACA         8.6490    -3.0090    -2.0630 hc         1 ANW       0.033200
     27 HACB         6.9780    -3.3730    -1.6110 hc         1 ANW       0.033200
     28 HAD          7.9320    -1.2410    -0.5960 hc         1 ANW       0.055700
     29 HAE          7.8790     0.7340    -2.2050 hc         1 ANW       0.033200
     30 HAEA         9.2260    -0.3900    -2.4340 hc         1 ANW       0.033200
     31 HAEB         7.8330    -0.4460    -3.5220 hc         1 ANW       0.033200
     32 HAG          6.0610    -0.7860     0.6780 ha         1 ANW       0.151000
     33 HAJ          3.2470    -0.6050    -3.3830 ha         1 ANW       0.142000
     34 HAK          5.6320    -1.1600    -3.5480 ha         1 ANW       0.127000
     35 HAO          1.8550     0.0210     3.3780 ha         1 ANW       0.184000
@<TRIPOS>BOND
     1     1    12 ar
     2     1    13 ar
     3     2    13 1
     4     3     4 1
     5     4     5 1
     6     4     6 1
     7     6     7 ar
     8     6    11 ar
     9     7     8 ar
    10     8     9 ar
    11     8    17 1
    12     9    10 ar
    13     9    19 1
    14    10    11 ar
    15    12    16 ar
    16    12    19 1
    17    13    14 ar
    18    14    15 ar
    19    14    18 1
    20    15    16 ar
    21    16    17 1
    22    17    20 2
    23    18    21 1
    24    18    22 1
    25     2    23 1
    26     2    24 1
    27     3    25 1
    28     3    26 1
    29     3    27 1
    30     4    28 1
    31     5    29 1
    32     5    30 1
    33     5    31 1
    34     7    32 1
    35    10    33 1
    36    11    34 1
    37    15    35 1
@<TRIPOS>SUBSTRUCTURE
     1 ANW         1 TEMP              0 ****  ****    0 ROOT
