@<TRIPOS>MOLECULE
molecule
   17    17     1     0     0
SMALL
bcc


@<TRIPOS>ATOM
      1 O1           0.0000     0.0000     0.0000 oh         1 ANX      -0.469100
      2 C1           1.3640     0.0000     0.0000 ca         1 ANX       0.176100
      3 C2           2.0840     0.0000     1.1950 ca         1 ANX      -0.143200
      4 N2           1.4130    -0.0000     2.4490 no         1 ANX       0.270200
      5 O21          2.0950    -0.0000     3.5000 o          1 ANX      -0.179000
      6 O22          0.1600     0.0000     2.4650 o          1 ANX      -0.179000
      7 C3           3.4790    -0.0000     1.1680 ca         1 ANX      -0.055000
      8 C4           4.1530    -0.0010    -0.0520 ca         1 ANX      -0.095000
      9 O41          5.3740     0.0030    -2.4910 o          1 ANX      -0.183000
     10 O42          3.4530     0.0000    -3.5530 o          1 ANX      -0.183000
     11 C5           3.4330    -0.0010    -1.2470 ca         1 ANX      -0.098200
     12 C6           2.0380    -0.0010    -1.2200 ca         1 ANX      -0.135000
     13 H5          -0.3140     0.7540    -0.4710 ho         1 ANX       0.441000
     14 H3           4.0380    -0.0000     2.0960 ha         1 ANX       0.190000
     15 H4           5.2360    -0.0010    -0.0730 ha         1 ANX       0.186000
     16 H6           1.4790    -0.0010    -2.1480 ha         1 ANX       0.189000
     17 N1           4.1200     0.0020    -2.4890 no         1 ANX       0.266200
@<TRIPOS>BOND
     1     1     2 1
     2     1    13 1
     3     2     3 ar
     4     2    12 ar
     5     3     4 1
     6     3     7 ar
     7     4     5 1
     8     4     6 1
     9     7     8 ar
    10     7    14 1
    11     8    11 ar
    12     8    15 1
    13    17     9 1
    14    17    10 1
    15    17    11 1
    16    11    12 ar
    17    12    16 1
@<TRIPOS>SUBSTRUCTURE
     1 ANX         1 TEMP              0 ****  ****    0 ROOT
