@<TRIPOS>MOLECULE
molecule
   82    83     1     0     0
SMALL
bcc


@<TRIPOS>ATOM
      1 C1           0.0000     0.0000     0.0000 ca         1 ANY       0.138100
      2 C2           1.3920     0.0000     0.0000 ca         1 ANY       0.003600
      3 C3           2.0850     0.0000     1.2010 ca         1 ANY      -0.090000
      4 C4           1.3990     0.0060     2.4030 ca         1 ANY      -0.135000
      5 C5           0.0210     0.0130     2.4190 ca         1 ANY      -0.098000
      6 C6          -0.6920     0.0120     1.2170 ca         1 ANY      -0.148600
      7 C7          -2.1670     0.0190     1.2300 c          1 ANY       0.680700
      8 N1           2.0940    -0.0060    -1.2140 ns         1 ANY      -0.487100
      9 N2          -2.8300     0.0260     2.4030 ns         1 ANY      -0.623900
     10 O1          -0.6820    -0.0010    -1.1740 oh         1 ANY      -0.494100
     11 O3          -2.7840     0.0190     0.1820 o          1 ANY      -0.590100
     12 C9          -4.2950     0.0320     2.4160 c3         1 ANY      -0.017300
     13 C10         -4.7960    -1.1910     3.1880 c3         1 ANY       0.152100
     14 O4          -4.1870     1.9920     3.9860 os         1 ANY      -0.405900
     15 O5          -4.2690    -1.1030     4.5440 os         1 ANY      -0.431900
     16 C11         -2.9280     1.7230     4.6240 c3         1 ANY       0.131100
     17 C12         -3.1650     1.0510     5.9870 c3         1 ANY       0.132100
     18 C13         -2.4200    -0.3080     5.9510 c3         1 ANY      -0.122700
     19 C14         -2.9280    -0.9990     4.6940 c          1 ANY       0.718600
     20 O6          -2.1690    -1.4360     3.8630 o          1 ANY      -0.604500
     21 C15         -2.7630    -1.1370     7.1920 c3         1 ANY      -0.072400
     22 C16         -2.0630    -2.4950     7.1080 c3         1 ANY      -0.087400
     23 C20         -4.7730     1.2950     3.0490 c          1 ANY       0.735600
     24 O7          -5.8280     1.7250     2.6470 o          1 ANY      -0.574500
     25 O8          -2.6340     1.8820     7.0510 os         1 ANY      -0.435900
     26 C21         -3.4270     2.7730     7.6680 c          1 ANY       0.631100
     27 C22         -2.8740     3.6350     8.7730 c3         1 ANY      -0.110700
     28 C26         -4.2920    -2.4700     2.5170 c3         1 ANY      -0.114100
     29 O9          -4.5830     2.8820     7.3360 o          1 ANY      -0.522000
     30 C27         -2.1740     3.0370     4.8300 c3         1 ANY      -0.091100
     31 C23         -3.9770     4.5550     9.3010 c3         1 ANY      -0.071400
     32 C17         -2.4070    -3.3230     8.3480 c3         1 ANY      -0.079400
     33 C8           3.2710    -0.6560    -1.3080 c          1 ANY       0.656900
     34 C24         -3.4160     5.4320    10.4230 c3         1 ANY      -0.093100
     35 C25         -2.3660     2.7460     9.9090 c3         1 ANY      -0.089100
     36 C18         -1.7060    -4.6800     8.2640 c3         1 ANY      -0.082400
     37 O2           3.6730    -1.3220    -0.3780 o          1 ANY      -0.597100
     38 C19         -2.0500    -5.5090     9.5030 c3         1 ANY      -0.081400
     39 C28         -1.3490    -6.8670     9.4190 c3         1 ANY      -0.084400
     40 C29         -1.6930    -7.6950    10.6590 c3         1 ANY      -0.092100
     41 H3           3.1690    -0.0020     1.1980 ha         1 ANY       0.164000
     42 H4           1.9480     0.0070     3.3370 ha         1 ANY       0.138000
     43 H5          -0.5100     0.0200     3.3630 ha         1 ANY       0.131000
     44 HN1          1.7460     0.5140    -1.9950 hn         1 ANY       0.335500
     45 HN2         -2.3210     0.0480     3.2650 hn         1 ANY       0.349500
     46 HO1         -0.6380    -0.8590    -1.5620 ho         1 ANY       0.426000
     47 H9          -4.6640    -0.0160     1.3990 h1         1 ANY       0.144700
     48 H10         -5.8790    -1.1870     3.2160 h1         1 ANY       0.109700
     49 H11         -2.3430     1.0620     3.9960 h1         1 ANY       0.054700
     50 H12         -4.2250     0.8850     6.1350 h1         1 ANY       0.110700
     51 H13         -1.3510    -0.1470     5.8840 hc         1 ANY       0.096700
     52 H151        -2.4290    -0.6140     8.0790 hc         1 ANY       0.063700
     53 H152        -3.8350    -1.2860     7.2420 hc         1 ANY       0.063700
     54 H161        -2.3970    -3.0180     6.2200 hc         1 ANY       0.047700
     55 H162        -0.9910    -2.3460     7.0580 hc         1 ANY       0.047700
     56 H22         -2.0570     4.2340     8.3890 hc         1 ANY       0.076700
     57 H261        -5.0950    -2.9180     1.9440 hc         1 ANY       0.058700
     58 H262        -3.4680    -2.2300     1.8560 hc         1 ANY       0.058700
     59 H263        -3.9560    -3.1680     3.2740 hc         1 ANY       0.058700
     60 H271        -2.8100     3.7410     5.3540 hc         1 ANY       0.058367
     61 H272        -1.2810     2.8530     5.4150 hc         1 ANY       0.058367
     62 H273        -1.8960     3.4490     3.8670 hc         1 ANY       0.058367
     63 H231        -4.3390     5.1850     8.4970 hc         1 ANY       0.060200
     64 H232        -4.7940     3.9560     9.6860 hc         1 ANY       0.060200
     65 H171        -3.4780    -3.4720     8.3970 hc         1 ANY       0.043200
     66 H172        -2.0730    -2.7990     9.2350 hc         1 ANY       0.043200
     67 H8           3.8570    -0.5860    -2.2170 h5         1 ANY       0.034200
     68 H241        -2.3780     5.6640    10.2150 hc         1 ANY       0.037033
     69 H242        -3.9860     6.3510    10.4830 hc         1 ANY       0.037033
     70 H243        -3.4850     4.9010    11.3650 hc         1 ANY       0.037033
     71 H251        -3.1560     2.6010    10.6350 hc         1 ANY       0.045700
     72 H252        -1.5180     3.2200    10.3870 hc         1 ANY       0.045700
     73 H253        -2.0640     1.7850     9.5080 hc         1 ANY       0.045700
     74 H181        -2.0380    -5.2040     7.3750 hc         1 ANY       0.043200
     75 H182        -0.6340    -4.5310     8.2160 hc         1 ANY       0.043200
     76 H191        -3.1220    -5.6580     9.5510 hc         1 ANY       0.041200
     77 H192        -1.7180    -4.9850    10.3910 hc         1 ANY       0.041200
     78 H281        -1.6810    -7.3910     8.5310 hc         1 ANY       0.041200
     79 H282        -0.2770    -6.7170     9.3710 hc         1 ANY       0.041200
     80 H291        -2.7660    -7.8320    10.7150 hc         1 ANY       0.033367
     81 H292        -1.2080    -8.6620    10.5930 hc         1 ANY       0.033367
     82 H293        -1.3480    -7.1780    11.5460 hc         1 ANY       0.033367
@<TRIPOS>BOND
     1     1     2 ar
     2     1     6 ar
     3     1    10 1
     4     2     3 ar
     5     2     8 1
     6     3     4 ar
     7     3    41 1
     8     4     5 ar
     9     4    42 1
    10     5     6 ar
    11     5    43 1
    12     6     7 1
    13     7     9 1
    14     7    11 2
    15     8    33 1
    16     8    44 1
    17     9    12 1
    18     9    45 1
    19    10    46 1
    20    12    13 1
    21    12    23 1
    22    12    47 1
    23    13    15 1
    24    13    28 1
    25    13    48 1
    26    14    16 1
    27    14    23 1
    28    15    19 1
    29    16    17 1
    30    16    30 1
    31    16    49 1
    32    17    18 1
    33    17    25 1
    34    17    50 1
    35    18    19 1
    36    18    21 1
    37    18    51 1
    38    19    20 2
    39    21    22 1
    40    21    52 1
    41    21    53 1
    42    22    32 1
    43    22    54 1
    44    22    55 1
    45    23    24 2
    46    25    26 1
    47    26    27 1
    48    26    29 2
    49    27    31 1
    50    27    35 1
    51    27    56 1
    52    28    57 1
    53    28    58 1
    54    28    59 1
    55    30    60 1
    56    30    61 1
    57    30    62 1
    58    31    34 1
    59    31    63 1
    60    31    64 1
    61    32    36 1
    62    32    65 1
    63    32    66 1
    64    33    37 2
    65    33    67 1
    66    34    68 1
    67    34    69 1
    68    34    70 1
    69    35    71 1
    70    35    72 1
    71    35    73 1
    72    36    38 1
    73    36    74 1
    74    36    75 1
    75    38    39 1
    76    38    76 1
    77    38    77 1
    78    39    40 1
    79    39    78 1
    80    39    79 1
    81    40    80 1
    82    40    81 1
    83    40    82 1
@<TRIPOS>SUBSTRUCTURE
     1 ANY         1 TEMP              0 ****  ****    0 ROOT
