@<TRIPOS>MOLECULE
AO
   40    42     1     0     0
SMALL
bcc


@<TRIPOS>ATOM
      1 C1           0.0000     0.0000     0.0000 ca         1 AO        0.017000
      2 C2           1.3560     0.0000     0.0000 ca         1 AO       -0.166000
      3 C3           2.0880     0.0000     1.1960 ca         1 AO        0.158600
      4 C4           1.4610    -0.0060     2.4210 ca         1 AO       -0.298000
      5 C5          -2.5570     0.0010     4.9720 ca         1 AO       -0.298000
      6 C6          -3.9320     0.0020     5.0180 ca         1 AO        0.158600
      7 C7          -4.7030     0.0020     3.8480 ca         1 AO       -0.166000
      8 C8          -4.1270     0.0010     2.6190 ca         1 AO        0.017000
      9 C9          -2.0970     0.0000     1.2570 ca         1 AO        0.094000
     10 N10         -0.5760    -0.0000     3.6520 na         1 AO        0.476900
     11 C11          0.0540    -0.0000     2.4810 ca         1 AO       -0.078800
     12 C12         -2.7220    -0.0000     2.5060 ca         1 AO       -0.146000
     13 C13         -0.7010    -0.0010     1.2230 ca         1 AO       -0.146000
     14 C14         -1.9040     0.0000     3.7240 ca         1 AO       -0.078800
     15 N15          3.4800     0.0000     1.1430 nh         1 AO       -0.315500
     16 CX7          4.1630     0.0010    -0.1520 c3         1 AO        0.191100
     17 CX8          4.2600     0.0010     2.3830 c3         1 AO        0.191100
     18 N16         -4.5730     0.0030     6.2550 nh         1 AO       -0.315500
     19 CXH         -6.0300     0.1330     6.3250 c3         1 AO        0.191100
     20 CXI         -3.7880    -0.1270     7.4860 c3         1 AO        0.191100
     21 H1          -0.5430     0.0000    -0.9370 ha         1 AO        0.122500
     22 H2           1.8860     0.0050    -0.9450 ha         1 AO        0.136000
     23 H4           2.0460    -0.0060     3.3330 ha         1 AO        0.142000
     24 H5          -1.9810     0.0010     5.8900 ha         1 AO        0.142000
     25 H7          -5.7840     0.0020     3.9260 ha         1 AO        0.136000
     26 H8          -4.7440     0.0010     1.7290 ha         1 AO        0.122500
     27 H9          -2.6610    -0.2620     0.3690 ha         1 AO        0.129000
     28 H10         -0.0400    -0.0000     4.4970 hn         1 AO        0.127700
     29 H151         5.2350    -0.0010     0.0050 h1         1 AO        0.021950
     30 H152         3.8810     0.8860    -0.7090 h1         1 AO        0.021950
     31 H153         3.8790    -0.8830    -0.7110 h1         1 AO        0.021950
     32 H154         4.0230    -0.8860     2.9590 h1         1 AO        0.021950
     33 H155         5.3170     0.0040     2.1450 h1         1 AO        0.021950
     34 H156         4.0180     0.8830     2.9620 h1         1 AO        0.021950
     35 H161        -6.3350     1.0450     5.8280 h1         1 AO        0.021950
     36 H162        -6.3400     0.1650     7.3620 h1         1 AO        0.021950
     37 H163        -6.4920    -0.7170     5.8370 h1         1 AO        0.021950
     38 H164        -3.1230     0.7230     7.5810 h1         1 AO        0.021950
     39 H165        -3.2040    -1.0390     7.4470 h1         1 AO        0.021950
     40 H166        -4.4560    -0.1610     8.3380 h1         1 AO        0.021950
@<TRIPOS>BOND
     1     1     2 ar  
     2     1    13 ar  
     3     1    21 1   
     4     2     3 ar  
     5     2    22 1   
     6     3     4 ar  
     7     3    15 1   
     8     4    11 ar  
     9     4    23 1   
    10     5     6 ar  
    11     5    14 ar  
    12     5    24 1   
    13     6     7 ar  
    14     6    18 1   
    15     7     8 ar  
    16     7    25 1   
    17     8    12 ar  
    18     8    26 1   
    19     9    12 ar  
    20     9    13 ar  
    21     9    27 1   
    22    10    11 1   
    23    10    14 2   
    24    10    28 1   
    25    11    13 ar  
    26    12    14 ar  
    27    15    16 1   
    28    15    17 1   
    29    16    29 1   
    30    16    30 1   
    31    16    31 1   
    32    17    32 1   
    33    17    33 1   
    34    17    34 1   
    35    18    19 1   
    36    18    20 1   
    37    19    35 1   
    38    19    36 1   
    39    19    37 1   
    40    20    38 1   
    41    20    39 1   
    42    20    40 1   
@<TRIPOS>SUBSTRUCTURE
     1 AO          1 TEMP              0 ****  ****    0 ROOT
