@<TRIPOS>MOLECULE
AO1
   51    52     1     0     0
SMALL
bcc


@<TRIPOS>ATOM
      1 C1           0.0000     0.0000     0.0000 c3         1 AO1       0.024900
      2 C2           1.5300     0.0000     0.0000 c3         1 AO1       0.096700
      3 S3           2.1340     0.0000     1.7110 ss         1 AO1      -0.345200
      4 C4           3.9240    -0.0000     1.4120 c3         1 AO1       0.038700
      5 C5           4.6640    -0.0000     2.7520 c3         1 AO1      -0.018400
      6 C6           6.1730     0.0000     2.5000 c3         1 AO1      -0.077500
      7 C8           6.9120     0.1260     3.8330 c3         1 AO1       0.123100
      8 C9           8.3990     0.1260     3.5860 c          1 AO1       0.498100
      9 N10          8.9980    -0.9710     3.0820 ns         1 AO1      -0.245900
     10 C11         10.4430    -0.9700     2.8410 c3         1 AO1       0.080000
     11 C12         10.7680    -1.9350     1.7290 ca         1 AO1      -0.099300
     12 O13          9.0560     1.1130     3.8410 o          1 AO1      -0.532100
     13 C14         11.1730    -1.3980     4.1160 c3         1 AO1      -0.014100
     14 C15          9.9580    -3.0030     1.4920 ca         1 AO1      -0.139000
     15 C16         10.2410    -3.9050     0.4680 ca         1 AO1      -0.116000
     16 C17         11.3360    -3.7440    -0.3250 ca         1 AO1      -0.049000
     17 C18         12.1940    -2.6530    -0.1110 ca         1 AO1      -0.030000
     18 C19         11.9030    -1.7320     0.9280 ca         1 AO1      -0.021000
     19 C20         13.3350    -2.4540    -0.9090 ca         1 AO1      -0.080000
     20 C21         14.1440    -1.3850    -0.6720 ca         1 AO1      -0.079000
     21 C22         13.8600    -0.4830     0.3520 ca         1 AO1      -0.065000
     22 C23         12.7660    -0.6440     1.1450 ca         1 AO1      -0.114000
     23 O24          6.5360     1.3470     4.4740 oh         1 AO1      -0.526800
     24 N7           6.5600    -1.2550     1.8420 nz         1 AO1       0.014400
     25 H11A        -0.3610     0.8840     0.5120 hc         1 AO1       0.022033
     26 H12         -0.3610     0.0010    -1.0210 hc         1 AO1       0.022033
     27 H13         -0.3610    -0.8850     0.5100 hc         1 AO1       0.022033
     28 H21A         1.8910     0.8850    -0.5110 h1         1 AO1       0.034200
     29 H22A         1.8910    -0.8850    -0.5110 h1         1 AO1       0.034200
     30 H41          4.1960     0.8840     0.8490 h1         1 AO1       0.029200
     31 H42          4.1960    -0.8850     0.8490 h1         1 AO1       0.029200
     32 H51          4.3920    -0.8850     3.3150 hc         1 AO1       0.070700
     33 H52          4.3910     0.8840     3.3150 hc         1 AO1       0.070700
     34 H6           6.4320     0.8370     1.8630 hx         1 AO1       0.112700
     35 H8           6.6520    -0.7110     4.4700 h1         1 AO1       0.024700
     36 H10          8.4670    -1.8070     2.9350 hn         1 AO1       0.154500
     37 H11         10.7620     0.0260     2.5590 h1         1 AO1       0.078700
     38 H141        12.1140    -1.8680     3.8530 hc         1 AO1       0.023700
     39 H142        11.3640    -0.5280     4.7320 hc         1 AO1       0.023700
     40 H143        10.5590    -2.1020     4.6650 hc         1 AO1       0.023700
     41 H15          9.0800    -3.1540     2.1080 ha         1 AO1       0.067000
     42 H16          9.5800    -4.7470     0.3000 ha         1 AO1       0.106000
     43 H17         11.5430    -4.4540    -1.1170 ha         1 AO1       0.118000
     44 H20         13.5680    -3.1470    -1.7080 ha         1 AO1       0.117000
     45 H21         15.0220    -1.2340    -1.2880 ha         1 AO1       0.114000
     46 H22         14.5210     0.3590     0.5190 ha         1 AO1       0.113000
     47 H23         12.5580     0.0660     1.9370 ha         1 AO1       0.117000
     48 H24          6.6610     1.2650     5.4050 ho         1 AO1       0.429000
     49 HN71         7.4300    -1.1270     1.3650 hn         1 AO1       0.240133
     50 HN72         6.6600    -1.9750     2.5310 hn         1 AO1       0.240133
     51 H73          5.8540    -1.5190     1.1840 hn         1 AO1       0.240133
@<TRIPOS>BOND
     1     1     2 1   
     2     1    25 1   
     3     1    26 1   
     4     1    27 1   
     5     2     3 1   
     6     2    28 1   
     7     2    29 1   
     8     3     4 1   
     9     4     5 1   
    10     4    30 1   
    11     4    31 1   
    12     5     6 1   
    13     5    32 1   
    14     5    33 1   
    15     6     7 1   
    16     6    24 1   
    17     6    34 1   
    18     7     8 1   
    19     7    23 1   
    20     7    35 1   
    21     8     9 1   
    22     8    12 2   
    23     9    10 1   
    24     9    36 1   
    25    10    11 1   
    26    10    13 1   
    27    10    37 1   
    28    11    14 ar  
    29    11    18 ar  
    30    13    38 1   
    31    13    39 1   
    32    13    40 1   
    33    14    15 ar  
    34    14    41 1   
    35    15    16 ar  
    36    15    42 1   
    37    16    17 ar  
    38    16    43 1   
    39    17    18 ar  
    40    17    19 ar  
    41    18    22 ar  
    42    19    20 ar  
    43    19    44 1   
    44    20    21 ar  
    45    20    45 1   
    46    21    22 ar  
    47    21    46 1   
    48    22    47 1   
    49    23    48 1   
    50    24    49 1   
    51    24    50 1   
    52    24    51 1   
@<TRIPOS>SUBSTRUCTURE
     1 AO1         1 TEMP              0 ****  ****    0 ROOT
