@<TRIPOS>MOLECULE
AO2
   50    51     1     0     0
SMALL
bcc


@<TRIPOS>ATOM
      1 C1           0.0000     0.0000     0.0000 c3         1 AO2      -0.020400
      2 C2           1.5300     0.0000     0.0000 c3         1 AO2      -0.020900
      3 C3           2.0390     0.0000     1.4440 c3         1 AO2      -0.025400
      4 C4           1.5280    -1.2490     2.1650 c3         1 AO2      -0.020900
      5 C5          -0.0020    -1.2490     2.1640 c3         1 AO2      -0.020400
      6 C6          -0.5110    -1.2490     0.7210 c3         1 AO2      -0.067700
      7 C7          -2.0410    -1.2490     0.7200 c3         1 AO2      -0.039400
      8 C8          -2.5510    -1.3800    -0.7160 c3         1 AO2      -0.086500
      9 N9          -2.1700    -2.6930    -1.2530 nz         1 AO2       0.063400
     10 C10         -4.0740    -1.2450    -0.7310 c3         1 AO2       0.115100
     11 O11         -4.6460    -2.2000     0.1650 oh         1 AO2      -0.566800
     12 C12         -4.5880    -1.4950    -2.1260 c          1 AO2       0.471100
     13 O13         -5.2940    -2.4560    -2.3490 o          1 AO2      -0.595100
     14 N14         -4.2610    -0.6520    -3.1250 ns         1 AO2      -0.093300
     15 N15         -4.7380    -0.8850    -4.4210 nu         1 AO2      -0.317600
     16 C16         -4.4000    -0.0100    -5.4580 ca         1 AO2       0.029600
     17 C17         -3.5910     1.0900    -5.2040 ca         1 AO2      -0.167500
     18 C18         -3.2550     1.9490    -6.2320 ca         1 AO2      -0.043000
     19 C19         -3.7300     1.7200    -7.5100 ca         1 AO2      -0.112300
     20 C20         -4.5360     0.6250    -7.7660 ca         1 AO2      -0.043000
     21 C21         -4.8720    -0.2410    -6.7440 ca         1 AO2      -0.167500
     22 C22         -3.3670     2.6630    -8.6270 c3         1 AO2       0.066200
     23 H11A        -0.3600    -0.0020    -1.0220 hc         1 AO2       0.018950
     24 H12         -0.3600     0.8840     0.5130 hc         1 AO2       0.018950
     25 H21A         1.8900    -0.8860    -0.5090 hc         1 AO2       0.022950
     26 H22          1.8890     0.8860    -0.5090 hc         1 AO2       0.022950
     27 H31          1.6760     0.8840     1.9530 hc         1 AO2       0.028200
     28 H32          3.1230    -0.0030     1.4430 hc         1 AO2       0.028200
     29 H41          1.8880    -2.1330     1.6520 hc         1 AO2       0.022950
     30 H42          1.8870    -1.2460     3.1870 hc         1 AO2       0.022950
     31 H51         -0.3620    -0.3620     2.6720 hc         1 AO2       0.018950
     32 H52         -0.3620    -2.1350     2.6730 hc         1 AO2       0.018950
     33 H6          -0.1450    -2.1320     0.2120 hc         1 AO2       0.005700
     34 H71         -2.4020    -2.0830     1.3090 hc         1 AO2       0.059700
     35 H72         -2.4020    -0.3210     1.1480 hc         1 AO2       0.059700
     36 H8          -2.1130    -0.6000    -1.3270 hx         1 AO2       0.096700
     37 HN91        -1.1740    -2.7440    -1.3340 hn         1 AO2       0.235133
     38 HN92        -2.5850    -2.8170    -2.1560 hn         1 AO2       0.235133
     39 H10         -4.3510    -0.2450    -0.4180 h1         1 AO2       0.054700
     40 H11         -5.3710    -1.8070     0.6220 ho         1 AO2       0.440000
     41 H14         -3.7240     0.1700    -2.9300 hn         1 AO2       0.200500
     42 H15         -5.3310    -1.6710    -4.6030 hn         1 AO2       0.347800
     43 H17         -3.2180     1.2700    -4.2030 ha         1 AO2       0.101500
     44 H18         -2.6240     2.8070    -6.0360 ha         1 AO2       0.113000
     45 H20         -4.9060     0.4480    -8.7690 ha         1 AO2       0.113000
     46 H21         -5.5030    -1.0980    -6.9440 ha         1 AO2       0.101500
     47 H221        -2.4060     2.3790    -9.0410 hc         1 AO2       0.013033
     48 H222        -4.1220     2.6130    -9.4020 hc         1 AO2       0.013033
     49 H223        -3.3100     3.6740    -8.2430 hc         1 AO2       0.013033
     50 H93         -2.4950    -3.4120    -0.6380 hn         1 AO2       0.235133
@<TRIPOS>BOND
     1     1     2 1   
     2     1     6 1   
     3     1    23 1   
     4     1    24 1   
     5     2     3 1   
     6     2    25 1   
     7     2    26 1   
     8     3     4 1   
     9     3    27 1   
    10     3    28 1   
    11     4     5 1   
    12     4    29 1   
    13     4    30 1   
    14     5     6 1   
    15     5    31 1   
    16     5    32 1   
    17     6     7 1   
    18     6    33 1   
    19     7     8 1   
    20     7    34 1   
    21     7    35 1   
    22     8     9 1   
    23     8    10 1   
    24     8    36 1   
    25     9    37 1   
    26     9    38 1   
    27     9    50 1   
    28    10    11 1   
    29    10    12 1   
    30    10    39 1   
    31    11    40 1   
    32    12    13 2   
    33    12    14 1   
    34    14    15 1   
    35    14    41 1   
    36    15    16 1   
    37    15    42 1   
    38    16    17 ar  
    39    16    21 ar  
    40    17    18 ar  
    41    17    43 1   
    42    18    19 ar  
    43    18    44 1   
    44    19    20 ar  
    45    19    22 1   
    46    20    21 ar  
    47    20    45 1   
    48    21    46 1   
    49    22    47 1   
    50    22    48 1   
    51    22    49 1   
@<TRIPOS>SUBSTRUCTURE
     1 AO2         1 TEMP              0 ****  ****    0 ROOT
