@<TRIPOS>MOLECULE
molecule
   13    13     1     0     0
SMALL
bcc


@<TRIPOS>ATOM
      1 CAH          0.0000     0.0000     0.0000 c          1 AO4       0.881200
      2 OAI          1.3460     0.0000     0.0000 o          1 AO4      -0.824800
      3 OAJ         -0.6080     0.0000     1.0510 o          1 AO4      -0.824800
      4 CAF         -0.7400     0.0040    -1.2830 ca         1 AO4      -0.065600
      5 CAA         -0.0610     0.0030    -2.5050 ca         1 AO4      -0.198300
      6 CAB         -0.7920     0.0070    -3.6780 ca         1 AO4       0.487300
      7 Cl1          0.0370     0.0070    -5.2040 cl         1 AO4      -0.218000
      8 NAC         -2.1110     0.0120    -3.6540 nb         1 AO4      -0.726000
      9 CAD         -2.7900     0.0130    -2.5240 ca         1 AO4       0.392200
     10 CAE         -2.1390     0.0030    -1.3050 ca         1 AO4      -0.231300
     11 HAA          1.0060    -0.1840    -2.5320 ha         1 AO4       0.170000
     12 HAD         -3.8730     0.0150    -2.5520 h4         1 AO4       0.002100
     13 HAE         -2.7040     0.0040    -0.3810 ha         1 AO4       0.154000
@<TRIPOS>BOND
     1     7     6 1
     2     5     6 ar
     3     5     4 ar
     4     6     8 ar
     5     3     1 1
     6     1     4 1
     7     1     2 1
     8     4    10 ar
     9     8     9 ar
    10    10     9 ar
    11     5    11 1
    12     9    12 1
    13    10    13 1
@<TRIPOS>SUBSTRUCTURE
     1 AO4         1 TEMP              0 ****  ****    0 ROOT
