@<TRIPOS>MOLECULE
molecule
   46    46     1     0     0
SMALL
bcc


@<TRIPOS>ATOM
      1 C1           0.0000     0.0000     0.0000 c3         1 AO5       0.023400
      2 C2           1.5300     0.0000     0.0000 c3         1 AO5      -0.088600
      3 C3          -0.5100     0.0000     1.4420 c3         1 AO5      -0.088600
      4 S4          -0.6050     1.4820    -0.8540 ss         1 AO5      -0.288200
      5 C5           0.0010     1.1480    -2.5310 c3         1 AO5      -0.028300
      6 C6          -0.4010     2.2980    -3.4580 c3         1 AO5      -0.090400
      7 C7           0.1100     2.0150    -4.8720 c3         1 AO5       0.114500
      8 N8          -0.5660     0.8270    -5.4100 nz         1 AO5      -0.806600
      9 C9          -0.1830     3.2200    -5.7700 c3         1 AO5       0.061100
     10 O10         -1.5790     3.5230    -5.7180 oh         1 AO5      -0.580800
     11 C11          0.2090     2.8960    -7.1880 c          1 AO5       0.575100
     12 O12         -0.6400     2.8330    -8.0530 o          1 AO5      -0.562100
     13 N13          1.5020     2.6760    -7.4970 ns         1 AO5      -0.422500
     14 N14          1.8670     2.3750    -8.8150 ns         1 AO5      -0.442500
     15 C15          3.1590     2.1540    -9.1230 c          1 AO5       0.685700
     16 O16          4.0110     2.2170    -8.2570 o          1 AO5      -0.605100
     17 C17          3.5440     1.8360   -10.5150 ca         1 AO5      -0.151600
     18 C18          4.8830     1.6080   -10.8380 ca         1 AO5      -0.057000
     19 C19          5.2360     1.3120   -12.1380 ca         1 AO5      -0.121000
     20 C20          4.2660     1.2400   -13.1220 ca         1 AO5      -0.080000
     21 C21          2.9370     1.4660   -12.8090 ca         1 AO5       0.022400
     22 C22          2.5700     1.7580   -11.5110 ca         1 AO5      -0.103000
     23 Cl23         1.7270     1.3740   -14.0520 cl         1 AO5      -0.080400
     24 H1          -0.3610    -0.8840    -0.5110 h1         1 AO5       0.063700
     25 H21          1.8910    -0.5370     0.8680 hc         1 AO5       0.052867
     26 H22A         1.8910     1.0210     0.0310 hc         1 AO5       0.052867
     27 H23          1.8910    -0.4830    -0.9000 hc         1 AO5       0.052867
     28 H31         -0.2160    -0.9220     1.9290 hc         1 AO5       0.052867
     29 H32         -0.0850     0.8420     1.9760 hc         1 AO5       0.052867
     30 H33         -1.5910     0.0800     1.4430 hc         1 AO5       0.052867
     31 H51          1.0810     1.0600    -2.5140 h1         1 AO5       0.051200
     32 H52         -0.4300     0.2230    -2.8940 h1         1 AO5       0.051200
     33 H61         -1.4810     2.3860    -3.4750 hc         1 AO5       0.104700
     34 H62          0.0310     3.2220    -3.0950 hc         1 AO5       0.104700
     35 H7           1.1790     1.8400    -4.8410 hx         1 AO5       0.115700
     36 HN81        -0.5420     0.8540    -6.4100 hn         1 AO5       0.463467
     37 HN82        -0.0990     0.0030    -5.0870 hn         1 AO5       0.463467
     38 H9           0.3860     4.0750    -5.4240 h1         1 AO5       0.104700
     39 H10         -1.7070     4.4440    -5.8770 ho         1 AO5       0.457000
     40 H13          2.2070     2.7640    -6.7910 hn         1 AO5       0.364500
     41 H14          1.1700     2.3510    -9.5340 hn         1 AO5       0.374500
     42 H18          5.6440     1.6640   -10.0680 ha         1 AO5       0.164000
     43 H19          6.2750     1.1340   -12.3890 ha         1 AO5       0.157000
     44 H20          4.5480     1.0090   -14.1420 ha         1 AO5       0.161000
     45 H22          1.5290     1.9350   -11.2670 ha         1 AO5       0.134000
     46 H83         -1.5120     0.8060    -5.0840 hn         1 AO5       0.463467
@<TRIPOS>BOND
     1     1     2 1
     2     1     3 1
     3     1     4 1
     4     1    24 1
     5     2    25 1
     6     2    26 1
     7     2    27 1
     8     3    28 1
     9     3    29 1
    10     3    30 1
    11     4     5 1
    12     5     6 1
    13     5    31 1
    14     5    32 1
    15     6     7 1
    16     6    33 1
    17     6    34 1
    18     7     8 1
    19     7     9 1
    20     7    35 1
    21     8    36 1
    22     8    37 1
    23     9    10 1
    24     9    11 1
    25     9    38 1
    26    10    39 1
    27    11    12 2
    28    11    13 1
    29    13    14 1
    30    13    40 1
    31    14    15 1
    32    14    41 1
    33    15    16 2
    34    15    17 1
    35    17    18 ar
    36    17    22 ar
    37    18    19 ar
    38    18    42 1
    39    19    20 ar
    40    19    43 1
    41    20    21 ar
    42    20    44 1
    43    21    22 ar
    44    21    23 1
    45    22    45 1
    46    46     8 1
@<TRIPOS>SUBSTRUCTURE
     1 AO5         1 TEMP              0 ****  ****    0 ROOT
