@<TRIPOS>MOLECULE
molecule
   19    20     1     0     0
SMALL
bcc


@<TRIPOS>ATOM
      1 C11          0.0000     0.0000     0.0000 c          1 AO7       0.886800
      2 C01          4.7610     0.0000     0.0000 ca         1 AO7      -0.163000
      3 C02          5.9680     0.0000     0.6640 ca         1 AO7      -0.094000
      4 C03          6.0360     0.3080     2.0160 ca         1 AO7      -0.193000
      5 C04          4.9000     0.6140     2.7140 ca         1 AO7      -0.049000
      6 C05          3.6700     0.6160     2.0590 ca         1 AO7      -0.238600
      7 C06          3.5920     0.3110     0.6890 ca         1 AO7       0.166100
      8 C07          2.4160     0.9260     2.7730 c          1 AO7       0.579900
      9 C08          1.1680     0.6170     2.0520 cc         1 AO7      -0.360200
     10 C09          1.2470     0.3290     0.7300 cd         1 AO7       0.109900
     11 O10          2.4050     0.3300     0.0550 os         1 AO7      -0.174200
     12 O12         -1.0630    -0.0090     0.5870 o          1 AO7      -0.795800
     13 O13          0.0460    -0.2850    -1.3160 o          1 AO7      -0.795800
     14 H011         4.7210    -0.2420    -1.0550 ha         1 AO7       0.146000
     15 H021         6.8760    -0.2400     0.1240 ha         1 AO7       0.119000
     16 H031         6.9940     0.3040     2.5220 ha         1 AO7       0.117000
     17 H041         4.9560     0.8550     3.7690 ha         1 AO7       0.142000
     18 H081         0.2110     0.8570     2.4980 ha         1 AO7       0.185000
     19 O14          2.4110     1.4090     3.8920 o          1 AO7      -0.590100
@<TRIPOS>BOND
     1     1    12 1
     2     1    13 1
     3     2     3 ar
     4     2     7 ar
     5     3     4 ar
     6     4     5 ar
     7     5     6 ar
     8     6     7 ar
     9     6     8 1
    10     7    11 1
    11     8     9 1
    12     8    19 2
    13     9    10 2
    14    10    11 1
    15    10     1 1
    16     2    14 1
    17     3    15 1
    18     4    16 1
    19     5    17 1
    20     9    18 1
@<TRIPOS>SUBSTRUCTURE
     1 AO7         1 TEMP              0 ****  ****    0 ROOT
