@<TRIPOS>MOLECULE
molecule
   44    47     1     0     0
SMALL
bcc


@<TRIPOS>ATOM
      1 N1           0.0000     0.0000     0.0000 n          1 AO9      -0.314000
      2 C2           1.3450     0.0000     0.0000 c          1 AO9       0.824900
      3 O2           1.9450     0.0010    -1.0610 o          1 AO9      -0.524500
      4 N3           2.0330     0.0000     1.1410 nc         1 AO9      -0.629100
      5 C4           1.4060    -0.0010     2.3100 cd         1 AO9       0.572500
      6 N4           2.1260    -0.0010     3.4820 nz         1 AO9      -0.741600
      7 C5          -0.0040    -0.0020     2.3450 cd         1 AO9      -0.436600
      8 C6          -0.6880    -0.0010     1.1760 cc         1 AO9       0.138600
      9 C1'         -0.7290     0.0070    -1.2710 c3         1 AO9       0.289500
     10 C2'         -0.4200     1.2990    -2.0690 c3         1 AO9       0.091100
     11 O2'         -1.2910     2.3620    -1.6770 oh         1 AO9      -0.578800
     12 C3'         -0.7080     0.8570    -3.5240 c3         1 AO9       0.106100
     13 O3'         -2.0180     1.2680    -3.9220 oh         1 AO9      -0.575800
     14 C30          1.3360    -3.2800    -5.2890 c          1 AO9       0.718700
     15 O31          2.0570    -2.6530    -6.0440 o          1 AO9      -0.597100
     16 C32          1.4130    -4.6930    -5.2470 cc         1 AO9      -0.328200
     17 N33          0.5770    -5.5580    -4.5200 na         1 AO9      -0.122900
     18 C34          1.0250    -6.8040    -4.7860 cc         1 AO9       0.499900
     19 N35          2.0540    -6.7540    -5.6090 nd         1 AO9      -0.665000
     20 C36          2.3170    -5.4910    -5.9160 cd         1 AO9       0.457200
     21 S37         -0.0250    -7.8990    -3.8720 ss         1 AO9      -0.125300
     22 C38         -1.0090    -6.5960    -3.1830 cc         1 AO9      -0.077100
     23 C39         -0.4980    -5.4750    -3.6700 cd         1 AO9      -0.118300
     24 C4'         -0.6120    -0.6790    -3.4790 c3         1 AO9       0.103100
     25 O4'         -0.2550    -1.0480    -2.1340 os         1 AO9      -0.395600
     26 C5'          0.4640    -1.1630    -4.4540 c3         1 AO9       0.119000
     27 N5'          0.4660    -2.6270    -4.4920 ns         1 AO9      -0.596900
     28 HN4          3.1050    -0.0160     3.2730 hn         1 AO9       0.477800
     29 HN4A         1.9100     0.8230     4.0070 hn         1 AO9       0.477800
     30 H5          -0.5310    -0.0030     3.2910 ha         1 AO9       0.175000
     31 H6          -1.7720    -0.0010     1.1760 h4         1 AO9       0.205000
     32 H1'         -1.7950    -0.0890    -1.1060 h2         1 AO9       0.106700
     33 H2'          0.6200     1.5810    -1.9530 h1         1 AO9       0.083700
     34 HO2'        -0.8190     3.1780    -1.6960 ho         1 AO9       0.420000
     35 H3'          0.0410     1.2610    -4.1950 h1         1 AO9       0.073700
     36 HO3'        -1.9600     1.7880    -4.7060 ho         1 AO9       0.422000
     37 H36          3.0920    -5.1470    -6.5900 h4         1 AO9       0.077100
     38 H38         -1.9890    -6.7060    -2.7340 h4         1 AO9       0.204000
     39 H39         -0.9200    -4.5140    -3.4040 h4         1 AO9       0.164000
     40 H4'         -1.5700    -1.1140    -3.7350 h1         1 AO9       0.083700
     41 H5'          1.4340    -0.8090    -4.1270 h1         1 AO9       0.073200
     42 H5'A         0.2540    -0.7770    -5.4440 h1         1 AO9       0.073200
     43 HN5'        -0.1950    -3.1430    -3.9460 hn         1 AO9       0.312500
     44 H43          1.8620    -0.7920     4.0360 hn         1 AO9       0.477800
@<TRIPOS>BOND
     1     9     1 1
     2     1     8 1
     3     1     2 1
     4     3     2 2
     5     2     4 1
     6     4     5 2
     7     7     5 1
     8     5     6 1
     9     6    28 1
    10     6    29 1
    11     8     7 2
    12     7    30 1
    13     8    31 1
    14    25     9 1
    15    10     9 1
    16     9    32 1
    17    12    10 1
    18    10    11 1
    19    10    33 1
    20    11    34 1
    21    24    12 1
    22    13    12 1
    23    12    35 1
    24    13    36 1
    25    16    14 1
    26    15    14 2
    27    14    27 1
    28    17    16 1
    29    16    20 2
    30    23    17 1
    31    18    17 1
    32    21    18 1
    33    18    19 2
    34    19    20 1
    35    20    37 1
    36    22    21 1
    37    22    23 2
    38    22    38 1
    39    23    39 1
    40    26    24 1
    41    24    25 1
    42    24    40 1
    43    27    26 1
    44    26    41 1
    45    26    42 1
    46    27    43 1
    47    44     6 1
@<TRIPOS>SUBSTRUCTURE
     1 AO9         1 TEMP              0 ****  ****    0 ROOT
