@<TRIPOS>MOLECULE
AO9
   44    47     1     0     0
SMALL
bcc


@<TRIPOS>ATOM
      1 N1           0.0000     0.0000     0.0000 n          1 AO9       0.132000
      2 C2           1.3450     0.0000     0.0000 c          1 AO9       0.672900
      3 O2           1.9450     0.0010    -1.0610 o          1 AO9      -0.570500
      4 N3           2.0330     0.0000     1.1410 nc         1 AO9      -0.476100
      5 C4           1.4060    -0.0010     2.3100 cd         1 AO9       0.265500
      6 N4           2.1260    -0.0010     3.4820 nz         1 AO9       0.200400
      7 C5          -0.0040    -0.0020     2.3450 cd         1 AO9      -0.382600
      8 C6          -0.6880    -0.0010     1.1760 cc         1 AO9       0.004600
      9 C1'         -0.7290     0.0070    -1.2710 c3         1 AO9       0.196500
     10 C2'         -0.4200     1.2990    -2.0690 c3         1 AO9       0.120100
     11 O2'         -1.2910     2.3620    -1.6770 oh         1 AO9      -0.558800
     12 C3'         -0.7080     0.8570    -3.5240 c3         1 AO9       0.147100
     13 O3'         -2.0180     1.2680    -3.9220 oh         1 AO9      -0.556800
     14 C30          1.3360    -3.2800    -5.2890 c          1 AO9       0.650700
     15 O31          2.0570    -2.6530    -6.0440 o          1 AO9      -0.632100
     16 C32          1.4130    -4.6930    -5.2470 cc         1 AO9      -0.521200
     17 N33          0.5770    -5.5580    -4.5200 na         1 AO9       0.398100
     18 C34          1.0250    -6.8040    -4.7860 cc         1 AO9       0.338900
     19 N35          2.0540    -6.7540    -5.6090 nd         1 AO9      -0.568000
     20 C36          2.3170    -5.4910    -5.9160 cd         1 AO9       0.470200
     21 S37         -0.0250    -7.8990    -3.8720 ss         1 AO9      -0.268300
     22 C38         -1.0090    -6.5960    -3.1830 cc         1 AO9       0.046900
     23 C39         -0.4980    -5.4750    -3.6700 cd         1 AO9      -0.291300
     24 C4'         -0.6120    -0.6790    -3.4790 c3         1 AO9       0.148100
     25 O4'         -0.2550    -1.0480    -2.1340 os         1 AO9      -0.387600
     26 C5'          0.4640    -1.1630    -4.4540 c3         1 AO9       0.053000
     27 N5'          0.4660    -2.6270    -4.4920 ns         1 AO9      -0.233900
     28 HN4          3.1050    -0.0160     3.2730 hn         1 AO9       0.222800
     29 HN4A         1.9100     0.8230     4.0070 hn         1 AO9       0.222800
     30 H5          -0.5310    -0.0030     3.2910 ha         1 AO9       0.153000
     31 H6          -1.7720    -0.0010     1.1760 h4         1 AO9       0.162000
     32 H1'         -1.7950    -0.0890    -1.1060 h2         1 AO9       0.067700
     33 H2'          0.6200     1.5810    -1.9530 h1         1 AO9       0.049700
     34 HO2'        -0.8190     3.1780    -1.6960 ho         1 AO9       0.405000
     35 H3'          0.0410     1.2610    -4.1950 h1         1 AO9       0.036700
     36 HO3'        -1.9600     1.7880    -4.7060 ho         1 AO9       0.407000
     37 H36          3.0920    -5.1470    -6.5900 h4         1 AO9       0.027100
     38 H38         -1.9890    -6.7060    -2.7340 h4         1 AO9       0.171000
     39 H39         -0.9200    -4.5140    -3.4040 h4         1 AO9       0.142000
     40 H4'         -1.5700    -1.1140    -3.7350 h1         1 AO9       0.047700
     41 H5'          1.4340    -0.8090    -4.1270 h1         1 AO9       0.043700
     42 H5'A         0.2540    -0.7770    -5.4440 h1         1 AO9       0.043700
     43 HN5'        -0.1950    -3.1430    -3.9460 hn         1 AO9       0.176500
     44 H43          1.8620    -0.7920     4.0360 hn         1 AO9       0.222800
@<TRIPOS>BOND
     1     1     2 1   
     2     1     8 1   
     3     1     9 1   
     4     2     3 2   
     5     2     4 1   
     6     4     5 2   
     7     5     6 1   
     8     5     7 1   
     9     6    28 1   
    10     6    29 1   
    11     6    44 1   
    12     7     8 2   
    13     7    30 1   
    14     8    31 1   
    15     9    10 1   
    16     9    25 1   
    17     9    32 1   
    18    10    11 1   
    19    10    12 1   
    20    10    33 1   
    21    11    34 1   
    22    12    13 1   
    23    12    24 1   
    24    12    35 1   
    25    13    36 1   
    26    14    15 2   
    27    14    16 1   
    28    14    27 1   
    29    16    17 1   
    30    16    20 2   
    31    17    18 1   
    32    17    23 1   
    33    18    19 2   
    34    18    21 1   
    35    19    20 1   
    36    20    37 1   
    37    21    22 1   
    38    22    23 2   
    39    22    38 1   
    40    23    39 1   
    41    24    25 1   
    42    24    26 1   
    43    24    40 1   
    44    26    27 1   
    45    26    41 1   
    46    26    42 1   
    47    27    43 1   
@<TRIPOS>SUBSTRUCTURE
     1 AO9         1 TEMP              0 ****  ****    0 ROOT
