@<TRIPOS>MOLECULE
AOA
   10     9     1     0     0
SMALL
bcc


@<TRIPOS>ATOM
      1 C1         -0.0570    0.2100   -0.0420 c3        1 AOA      0.017400
      2 N1          1.8350   -0.0990   -1.3900 n3        1 AOA     -0.666300
      3 O1          1.3110   -0.2420   -0.1540 os        1 AOA     -0.254100
      4 C2         -0.4710   -0.0250    1.4350 c         1 AOA      0.917600
      5 O2         -1.0360   -1.1180    1.7120 o         1 AOA     -0.834300
      6 O3         -0.2710    0.9140    2.2520 o         1 AOA     -0.834300
      7 H1C1       -0.7090   -0.3830   -0.7300 h1        1 AOA      0.013700
      8 H1C2       -0.1190    1.2980   -0.2950 h1        1 AOA      0.013700
      9 H1N1        2.1620   -1.0210   -1.6700 hn        1 AOA      0.311800
     10 H1N2        2.6720    0.4680   -1.2820 hn        1 AOA      0.311800
@<TRIPOS>BOND
     1    1    3 1   
     2    1    4 1   
     3    1    7 1   
     4    1    8 1   
     5    2    3 1   
     6    2    9 1   
     7    2   10 1   
     8    4    5 1   
     9    4    6 1   
@<TRIPOS>SUBSTRUCTURE
     1 AOA         1 TEMP              0 ****  ****    0 ROOT
