@<TRIPOS>MOLECULE
molecule
   33    35     1     0     0
SMALL
bcc


@<TRIPOS>ATOM
      1 NAA         -1.5410    -0.0220     2.0540 n1         1 AOB      -0.288800
      2 CAD         -0.8620    -0.0020     1.1440 cg         1 AOB       0.241800
      3 CAR          0.0000     0.0000     0.0000 cc         1 AOB      -0.014000
      4 CAU          1.4690     0.0000     0.0000 cc         1 AOB      -0.153600
      5 CAS          2.4520     0.0000     1.0120 c          1 AOB       0.752100
      6 OAC          2.1380    -0.0010     2.1900 o          1 AOB      -0.533500
      7 NAM          3.7530    -0.0000     0.6410 ns         1 AOB      -0.440400
      8 CAO          4.0870     0.0010    -0.6800 cc         1 AOB       0.351800
      9 NAB          5.4120     0.0000    -1.0290 nz         1 AOB      -0.756600
     10 NAL          3.1790     0.0010    -1.6300 nd         1 AOB      -0.559100
     11 CAT          1.8700     0.0010    -1.3430 cd         1 AOB       0.124100
     12 NAN          0.7460     0.0010    -2.1230 na         1 AOB      -0.130100
     13 CAQ         -0.3830    -0.0040    -1.3390 cd         1 AOB       0.055900
     14 CAF         -1.7190    -0.0120    -1.8170 cf         1 AOB      -0.154200
     15 CAE         -1.9620    -0.0160    -3.1450 ce         1 AOB      -0.002200
     16 CAP         -3.3470    -0.0220    -3.6390 ca         1 AOB      -0.155800
     17 CAJ         -3.6030    -0.0270    -5.0140 ca         1 AOB      -0.103000
     18 CAH         -4.9040    -0.0340    -5.4710 ca         1 AOB      -0.120000
     19 CAG         -5.9560    -0.0380    -4.5710 ca         1 AOB      -0.074000
     20 CAI         -5.7110    -0.0330    -3.2080 ca         1 AOB      -0.120000
     21 CAK         -4.4160    -0.0310    -2.7370 ca         1 AOB      -0.103000
     22 HAM          4.7020     0.0030     0.9570 hn         1 AOB       0.322500
     23 HAB1         5.5470    -0.7100    -0.3370 hn         1 AOB       0.496467
     24 HAB2         5.3250    -0.7090    -1.7300 hn         1 AOB       0.496467
     25 HAN          0.7960     0.1130    -3.1160 hn         1 AOB       0.327700
     26 HAF         -2.1120    -0.6910    -1.0700 ha         1 AOB       0.178000
     27 HAE         -1.3760     0.2420    -4.0190 ha         1 AOB       0.138000
     28 HAJ         -2.8360     0.2970    -5.7070 ha         1 AOB       0.139000
     29 HAK         -3.9000    -0.1170    -1.7880 ha         1 AOB       0.139000
     30 HAH         -5.0740     0.0400    -6.5380 ha         1 AOB       0.148000
     31 HAG         -6.8100    -0.1180    -5.2330 ha         1 AOB       0.156000
     32 HAI         -6.3490    -0.0090    -2.3330 ha         1 AOB       0.148000
     33 HAB3         5.9180     0.8520    -1.1750 hn         1 AOB       0.496467
@<TRIPOS>BOND
     1     1     2 3
     2     2     3 1
     3     3     4 1
     4     3    13 2
     5     4     5 1
     6     4    11 2
     7     5     6 2
     8     5     7 1
     9     7     8 1
    10     8     9 1
    11     8    10 2
    12    10    11 1
    13    11    12 1
    14    12    13 1
    15    13    14 1
    16    14    15 2
    17    15    16 1
    18    16    17 ar
    19    16    21 ar
    20    17    18 ar
    21    18    19 ar
    22    19    20 ar
    23    20    21 ar
    24     7    22 1
    25     9    23 1
    26     9    24 1
    27    12    25 1
    28    14    26 1
    29    15    27 1
    30    17    28 1
    31    21    29 1
    32    18    30 1
    33    19    31 1
    34    20    32 1
    35    33     9 1
@<TRIPOS>SUBSTRUCTURE
     1 AOB         1 TEMP              0 ****  ****    0 ROOT
