@<TRIPOS>MOLECULE
AOB
   33    36     1     0     0
SMALL
bcc


@<TRIPOS>ATOM
      1 NAA         -1.5370    -0.0200     2.0570 n1         1 AOB       0.007000
      2 CAD         -0.8620    -0.0020     1.1440 c1         1 AOB      -0.097000
      3 CAR          0.0000     0.0000     0.0000 c2         1 AOB       0.059000
      4 CAU          1.4690     0.0000     0.0000 c2         1 AOB      -0.162000
      5 CAS          2.4520     0.0000     1.0120 c2         1 AOB       0.263000
      6 OAC          2.1380    -0.0010     2.1900 o          1 AOB      -0.318000
      7 NAM          3.7530    -0.0000     0.6410 ns         1 AOB       0.102000
      8 CAO          4.0870     0.0010    -0.6800 c2         1 AOB      -0.424000
      9 NAB          5.4120     0.0000    -1.0290 nz         1 AOB       0.983000
     10 NAL          3.1790     0.0010    -1.6300 n2         1 AOB       0.089000
     11 CAT          1.8700     0.0010    -1.3430 c2         1 AOB      -0.266000
     12 NAN          0.7460     0.0010    -2.1230 na         1 AOB       0.482000
     13 CAQ         -0.3830    -0.0040    -1.3390 c2         1 AOB      -0.089000
     14 CAF         -1.7190    -0.0120    -1.8170 c2         1 AOB      -0.192000
     15 CAE         -1.9620    -0.0160    -3.1450 c2         1 AOB      -0.315000
     16 CAP         -3.3470    -0.0220    -3.6390 c3         1 AOB      -0.039000
     17 CAJ         -3.6030    -0.0270    -5.0140 c2         1 AOB      -0.048000
     18 CAH         -4.9040    -0.0340    -5.4710 c2         1 AOB      -0.091500
     19 CAG         -5.9560    -0.0380    -4.5710 c2         1 AOB      -0.040000
     20 CAI         -5.7110    -0.0330    -3.2080 c2         1 AOB      -0.091500
     21 CAK         -4.4160    -0.0310    -2.7370 c2         1 AOB      -0.048000
     22 HAM          4.2100    -0.1770     1.5140 hn         1 AOB       0.142000
     23 HAB1         5.8910     0.8710    -0.9070 hn         1 AOB      -0.003667
     24 HAB2         5.8020    -0.3800    -0.1900 hn         1 AOB      -0.003667
     25 HAN          0.6670    -0.3060    -3.0720 hn         1 AOB       0.102000
     26 HAF         -2.2450    -0.7630    -1.2390 ha         1 AOB       0.111000
     27 HAE         -2.9170    -0.4940    -3.3250 DU         1 AOB       0.220000
     28 HAJ         -2.6720     0.2150    -5.5130 ha         1 AOB       0.145000
     29 HAK         -3.9420     0.1610    -1.7820 ha         1 AOB       0.145000
     30 HAH         -5.2740    -0.0210    -6.4890 ha         1 AOB       0.130000
     31 HAG         -6.9700    -0.0200    -4.9500 ha         1 AOB       0.121000
     32 HAI         -6.6980    -0.1130    -2.7690 ha         1 AOB       0.130000
     33 HAB3         6.0520    -0.5330    -1.5840 hn         1 AOB      -0.003667
@<TRIPOS>BOND
     1     1     2 1   
     2     2     3 1   
     3     3     4 1   
     4     3    13 1   
     5     4     5 1   
     6     4    11 1   
     7     5     6 1   
     8     5     7 1   
     9     7     8 1   
    10     7    22 1   
    11     8     9 1   
    12     8    10 1   
    13     9    23 1   
    14     9    24 1   
    15     9    33 1   
    16    10    11 1   
    17    11    12 1   
    18    12    13 1   
    19    12    25 1   
    20    13    14 1   
    21    14    15 1   
    22    14    26 1   
    23    15    16 1   
    24    15    27 1   
    25    16    17 1   
    26    16    21 1   
    27    16    27 1   
    28    17    18 1   
    29    17    28 1   
    30    18    19 1   
    31    18    30 1   
    32    19    20 1   
    33    19    31 1   
    34    20    21 1   
    35    20    32 1   
    36    21    29 1   
@<TRIPOS>SUBSTRUCTURE
     1 AOB         1 TEMP              0 ****  ****    0 ROOT
