@<TRIPOS>MOLECULE
molecule
   37    39     1     0     0
SMALL
bcc


@<TRIPOS>ATOM
      1 CAA         -0.8800    -0.0200    -2.4950 c1         1 AOC      -0.117500
      2 CAE         -0.4910     0.0000    -1.3870 c1         1 AOC      -0.149100
      3 CAH          0.0000     0.0000     0.0000 c3         1 AOC       0.228500
      4 O5'          1.4290     0.0000     0.0000 os         1 AOC      -0.408600
      5 C5'          2.0110     0.0000     1.3050 c3         1 AOC       0.139400
      6 C4'          3.5360    -0.0010     1.1840 c3         1 AOC       0.129100
      7 O4'          3.9810     1.2400     0.6120 os         1 AOC      -0.401600
      8 C3'          4.1720    -0.1190     2.5820 c3         1 AOC       0.086100
      9 O3'          4.9760    -1.2980     2.6670 oh         1 AOC      -0.567800
     10 C2'          5.0510     1.1490     2.7070 c3         1 AOC       0.093100
     11 O2'          6.3020     0.8440     3.3270 oh         1 AOC      -0.554800
     12 C1'          5.2530     1.5530     1.2210 c3         1 AOC       0.262800
     13 N9           5.5420     2.9850     1.1090 na         1 AOC      -0.253000
     14 C8           4.6360     3.9740     0.8650 cc         1 AOC       0.428700
     15 N7           5.2370     5.1280     0.8310 nd         1 AOC      -0.590100
     16 C5           6.5620     4.9530     1.0500 ca         1 AOC      -0.213200
     17 C4           6.7730     3.5770     1.2380 ca         1 AOC       0.481800
     18 N3           8.0050     3.1380     1.4730 nb         1 AOC      -0.782000
     19 C2           9.0170     3.9790     1.5310 ca         1 AOC       0.739900
     20 N1           8.8680     5.2800     1.3610 nb         1 AOC      -0.837000
     21 C6           7.6720     5.8110     1.1250 ca         1 AOC       0.787200
     22 N6           7.5260     7.1760     0.9550 nv         1 AOC      -0.984500
     23 HAA         -1.2320    -0.0210    -3.5190 ha         1 AOC       0.168500
     24 HAH1        -0.3610    -0.8850     0.5110 h1         1 AOC       0.039200
     25 HAH2        -0.3610     0.8840     0.5110 h1         1 AOC       0.039200
     26 H5'          1.6910    -0.8840     1.8430 h1         1 AOC       0.031700
     27 H5''         1.6920     0.8850     1.8430 h1         1 AOC       0.031700
     28 H4'          3.8600    -0.8270     0.5630 h1         1 AOC       0.092700
     29 H3'          3.4040    -0.1220     3.3460 h1         1 AOC       0.045700
     30 HO3'         4.6390    -1.8600     3.3460 ho         1 AOC       0.405000
     31 H2'          4.5250     1.9270     3.2470 h1         1 AOC       0.057700
     32 HO2'         6.2590     1.0580     4.2450 ho         1 AOC       0.405000
     33 H1'          6.0420     0.9620     0.7720 h2         1 AOC       0.115700
     34 H8           3.5730     3.8220     0.7210 h5         1 AOC       0.088800
     35 H2          10.0090     3.5880     1.7210 h5         1 AOC       0.061100
     36 H61          6.6200     7.5640     0.7780 hn         1 AOC       0.449800
     37 H62          8.3250     7.7760     1.0090 hn         1 AOC       0.449800
@<TRIPOS>BOND
     1    22    21 1
     2    15    16 1
     3    15    14 2
     4    21    16 ar
     5    21    20 ar
     6    16    17 ar
     7    14    13 1
     8    20    19 ar
     9    11    10 1
    10    10     8 1
    11    10    12 1
    12    17    13 1
    13    17    18 ar
    14    13    12 1
    15    19    18 ar
    16     9     8 1
    17     8     6 1
    18    12     7 1
    19     7     6 1
    20     6     5 1
    21     5     4 1
    22     4     3 1
    23     3     2 1
    24     2     1 3
    25     1    23 1
    26     3    24 1
    27     3    25 1
    28     5    26 1
    29     5    27 1
    30     6    28 1
    31     8    29 1
    32     9    30 1
    33    10    31 1
    34    11    32 1
    35    12    33 1
    36    14    34 1
    37    19    35 1
    38    22    36 1
    39    22    37 1
@<TRIPOS>SUBSTRUCTURE
     1 AOC         1 TEMP              0 ****  ****    0 ROOT
