@<TRIPOS>MOLECULE
AOC
   37    39     1     0     0
SMALL
bcc


@<TRIPOS>ATOM
      1 CAA         -0.8800    -0.0200    -2.4950 c1         1 AOC      -0.087500
      2 CAE         -0.4910     0.0000    -1.3870 c1         1 AOC      -0.178100
      3 CAH          0.0000     0.0000     0.0000 c3         1 AOC       0.346500
      4 O5'          1.4290     0.0000     0.0000 os         1 AOC      -0.400600
      5 C5'          2.0110     0.0000     1.3050 c3         1 AOC       0.207400
      6 C4'          3.5360    -0.0010     1.1840 c3         1 AOC       0.157100
      7 O4'          3.9810     1.2400     0.6120 os         1 AOC      -0.386600
      8 C3'          4.1720    -0.1190     2.5820 c3         1 AOC       0.128100
      9 O3'          4.9760    -1.2980     2.6670 oh         1 AOC      -0.547800
     10 C2'          5.0510     1.1490     2.7070 c3         1 AOC       0.128100
     11 O2'          6.3020     0.8440     3.3270 oh         1 AOC      -0.534800
     12 C1'          5.2530     1.5530     1.2210 c3         1 AOC       0.153800
     13 N9           5.5420     2.9850     1.1090 na         1 AOC       0.207000
     14 C8           4.6360     3.9740     0.8650 cc         1 AOC       0.248700
     15 N7           5.2370     5.1280     0.8310 nd         1 AOC      -0.499100
     16 C5           6.5620     4.9530     1.0500 ca         1 AOC      -0.246200
     17 C4           6.7730     3.5770     1.2380 ca         1 AOC       0.276800
     18 N3           8.0050     3.1380     1.4730 nb         1 AOC      -0.671000
     19 C2           9.0170     3.9790     1.5310 ca         1 AOC       0.688900
     20 N1           8.8680     5.2800     1.3610 nb         1 AOC      -0.746000
     21 C6           7.6720     5.8110     1.1250 ca         1 AOC       0.590200
     22 N6           7.5260     7.1760     0.9550 nv         1 AOC      -0.482500
     23 HAA         -1.2320    -0.0210    -3.5190 ha         1 AOC       0.138500
     24 HAH1        -0.3610    -0.8850     0.5110 h1         1 AOC      -0.006300
     25 HAH2        -0.3610     0.8840     0.5110 h1         1 AOC      -0.006300
     26 H5'          1.6910    -0.8840     1.8430 h1         1 AOC      -0.003300
     27 H5''         1.6920     0.8850     1.8430 h1         1 AOC      -0.003300
     28 H4'          3.8600    -0.8270     0.5630 h1         1 AOC       0.053700
     29 H3'          3.4040    -0.1220     3.3460 h1         1 AOC       0.010700
     30 HO3'         4.6390    -1.8600     3.3460 ho         1 AOC       0.390000
     31 H2'          4.5250     1.9270     3.2470 h1         1 AOC       0.020700
     32 HO2'         6.2590     1.0580     4.2450 ho         1 AOC       0.389000
     33 H1'          6.0420     0.9620     0.7720 h2         1 AOC       0.072700
     34 H8           3.5730     3.8220     0.7210 h5         1 AOC       0.040800
     35 H2          10.0090     3.5880     1.7210 h5         1 AOC      -0.004900
     36 H61          6.6200     7.5640     0.7780 hn         1 AOC       0.275800
     37 H62          8.3250     7.7760     1.0090 hn         1 AOC       0.275800
@<TRIPOS>BOND
     1     1     2 3   
     2     1    23 1   
     3     2     3 1   
     4     3     4 1   
     5     3    24 1   
     6     3    25 1   
     7     4     5 1   
     8     5     6 1   
     9     5    26 1   
    10     5    27 1   
    11     6     7 1   
    12     6     8 1   
    13     6    28 1   
    14     7    12 1   
    15     8     9 1   
    16     8    10 1   
    17     8    29 1   
    18     9    30 1   
    19    10    11 1   
    20    10    12 1   
    21    10    31 1   
    22    11    32 1   
    23    12    13 1   
    24    12    33 1   
    25    13    14 1   
    26    13    17 1   
    27    14    15 2   
    28    14    34 1   
    29    15    16 1   
    30    16    17 ar  
    31    16    21 ar  
    32    17    18 ar  
    33    18    19 ar  
    34    19    20 ar  
    35    19    35 1   
    36    20    21 ar  
    37    21    22 1   
    38    22    36 1   
    39    22    37 1   
@<TRIPOS>SUBSTRUCTURE
     1 AOC         1 TEMP              0 ****  ****    0 ROOT
