@<TRIPOS>MOLECULE
molecule
   34    35     1     0     0
SMALL
bcc


@<TRIPOS>ATOM
      1 OAA          0.0000     0.0000     0.0000 o          1 AOD      -0.844300
      2 OAC          1.9560     0.0510    -1.0520 o          1 AOD      -0.844300
      3 OAD          7.9060     1.9010    -2.9350 o          1 AOD      -0.857800
      4 CAF          3.4720    -0.1810     3.6750 ca         1 AOD      -0.073000
      5 CAG          4.1660     0.0000     2.4970 ca         1 AOD      -0.259000
      6 CAH          1.3950    -0.2450     2.4760 ca         1 AOD      -0.021000
      7 CAI          7.7830    -1.2780     0.4990 c3         1 AOD      -0.085400
      8 CAJ          6.2630    -1.2680     0.3280 c3         1 AOD      -0.093400
      9 CAK          8.4370    -0.6200    -0.7160 c3         1 AOD      -0.059400
     10 CAL          6.4270     0.8350    -1.0100 c3         1 AOD      -0.063400
     11 CAN          1.3480     0.0000     0.0000 c          1 AOD       0.904200
     12 CAO          8.5920     1.4730    -2.0380 c          1 AOD       0.896600
     13 CAP          2.0900    -0.3020     3.6650 ca         1 AOD      -0.120900
     14 CAQ          3.4820     0.0610     1.2880 ca         1 AOD       0.247600
     15 CAR          2.0840    -0.0620     1.2740 ca         1 AOD      -0.208600
     16 CAS          5.7730     0.1760     0.2050 c3         1 AOD       0.220500
     17 CAT          7.9470     0.8240    -0.8400 c3         1 AOD      -0.166700
     18 HAF          4.0100    -0.2270     4.6140 ha         1 AOD       0.105000
     19 HAG          5.2450     0.0940     2.5130 ha         1 AOD       0.127000
     20 HAH          0.3210    -0.3860     2.4690 ha         1 AOD       0.155000
     21 HAI          8.0480    -0.7270     1.3930 hc         1 AOD       0.019200
     22 HAIA         8.1290    -2.3010     0.5840 hc         1 AOD       0.019200
     23 HAJ          5.9980    -1.8160    -0.5680 hc         1 AOD       0.039200
     24 HAJA         5.8010    -1.7330     1.1910 hc         1 AOD       0.039200
     25 HAK          8.1680    -1.1690    -1.6110 hc         1 AOD       0.042200
     26 HAKA         9.5130    -0.6260    -0.5930 hc         1 AOD       0.042200
     27 HAL          6.1620     0.2850    -1.9050 hc         1 AOD       0.057700
     28 HALA         6.0820     1.8590    -1.0940 hc         1 AOD       0.057700
     29 HNAM         3.6980     0.1910    -0.7750 hn         1 AOD       0.502800
     30 HAS          6.0890     0.7380     1.0760 h1         1 AOD       0.043700
     31 HAT          8.2120     1.3710     0.0580 hc         1 AOD       0.034700
     32 NAM          4.1800     0.2420     0.1010 nu         1 AOD      -0.798600
     33 BrAE         1.1560    -0.5480     5.2910 br         1 AOD      -0.199100
     34 OAB          9.9290     1.5750    -2.1070 o          1 AOD      -0.857800
@<TRIPOS>BOND
     1     1    11 1
     2    34    12 1
     3     2    11 1
     4     3    12 1
     5    33    13 1
     6     4     5 ar
     7     4    13 ar
     8     4    18 1
     9     5    14 ar
    10     5    19 1
    11     6    13 ar
    12     6    15 ar
    13     6    20 1
    14     7     8 1
    15     7     9 1
    16     7    21 1
    17     7    22 1
    18     8    16 1
    19     8    23 1
    20     8    24 1
    21     9    17 1
    22     9    25 1
    23     9    26 1
    24    10    16 1
    25    10    17 1
    26    10    27 1
    27    10    28 1
    28    32    14 1
    29    32    16 1
    30    32    29 1
    31    11    15 1
    32    12    17 1
    33    14    15 ar
    34    16    30 1
    35    17    31 1
@<TRIPOS>SUBSTRUCTURE
     1 AOD         1 TEMP              0 ****  ****    0 ROOT
