@<TRIPOS>MOLECULE
AOE
   94    97     1     0     0
SMALL
bcc


@<TRIPOS>ATOM
      1 C1          0.1530   -1.2790    0.3390 ca        1 AOE     -0.090000
      2 C2          1.4500   -1.7270    0.5680 ca        1 AOE     -0.213000
      3 C3          1.9670   -1.6790    1.8700 ca        1 AOE      0.123100
      4 O3          3.2410   -2.0940    2.1830 oh        1 AOE     -0.499100
      5 C4          1.1890   -1.1870    2.9260 ca        1 AOE     -0.164000
      6 C5         -0.1140   -0.7420    2.6820 ca        1 AOE     -0.038300
      7 C6         -0.8950   -0.2550    3.8540 c3        1 AOE     -0.036100
      8 C7         -2.1460    0.5300    3.4800 c3        1 AOE     -0.054700
      9 C8         -2.8670   -0.2410    2.3780 c3        1 AOE     -0.044700
     10 C9         -2.0220   -0.2700    1.0930 c3        1 AOE     -0.007400
     11 C10        -0.6460   -0.7890    1.3790 ca        1 AOE     -0.100300
     12 C11        -2.7260   -1.0470   -0.0180 c3        1 AOE     -0.072400
     13 C12        -4.1680   -0.6260   -0.2560 c3        1 AOE     -0.064400
     14 C13        -4.9610   -0.6270    1.0390 c3        1 AOE     -0.043000
     15 C14        -4.2290    0.3130    2.0290 c3        1 AOE     -0.066700
     16 C15        -5.2500    0.5720    3.1290 c3        1 AOE     -0.067400
     17 C16        -6.6010    0.5740    2.4090 c3        1 AOE     -0.117400
     18 C17        -6.3490    0.0600    0.9740 c3        1 AOE      0.142100
     19 C18        -5.1400   -2.0460    1.5510 c3        1 AOE     -0.078100
     20 O17        -7.3290   -0.8710    0.5550 oh        1 AOE     -0.589800
     21 C19        -1.8080    1.9650    3.1020 c3        1 AOE     -0.078400
     22 C20        -1.5840    2.8340    4.3220 c3        1 AOE     -0.078400
     23 C21        -1.1840    4.2390    3.9230 c3        1 AOE     -0.079400
     24 C22        -0.9380    5.1050    5.1400 c3        1 AOE     -0.079400
     25 C23        -0.5070    6.5000    4.7410 c3        1 AOE     -0.079400
     26 C24        -0.2380    7.3590    5.9590 c3        1 AOE     -0.079400
     27 C25         0.2150    8.7470    5.5580 c3        1 AOE     -0.079400
     28 C26         0.5000    9.5980    6.7780 c3        1 AOE     -0.080400
     29 C27         0.9670   10.9800    6.3690 c3        1 AOE     -0.082400
     30 C28         1.2540   11.8220    7.6000 c3        1 AOE     -0.153400
     31 C29         1.7570   13.1800    7.2050 c         1 AOE      0.546100
     32 O29         2.0590   13.5880    6.0970 o         1 AOE     -0.400100
     33 N29         1.9150   14.1670    8.3640 n4        1 AOE     -0.602200
     34 C30         3.1190   15.0140    8.1940 c3        1 AOE      0.081100
     35 C31         0.6680   14.9870    8.5250 c3        1 AOE      0.111800
     36 C32         0.4090   15.9820    7.4020 c3        1 AOE     -0.105400
     37 C33        -0.9640   16.6020    7.5870 c3        1 AOE     -0.077400
     38 C34        -1.2370   17.6240    6.5140 c3        1 AOE     -0.099100
     39 HC1        -0.2380   -1.3160   -0.6890 ha        1 AOE      0.135000
     40 HC2         2.0610   -2.1130   -0.2590 ha        1 AOE      0.135000
     41 HO3         3.6460   -2.4430    1.3760 ho        1 AOE      0.420000
     42 HC4         1.6120   -1.1570    3.9400 ha        1 AOE      0.147000
     43 HC61       -0.2340    0.3790    4.5040 hc        1 AOE      0.053200
     44 HC62       -1.1990   -1.1500    4.4640 hc        1 AOE      0.053200
     45 HC7        -2.8290    0.5570    4.3770 hc        1 AOE      0.049700
     46 HC8        -2.9890   -1.2980    2.7510 hc        1 AOE      0.063700
     47 HC9        -1.9050    0.7970    0.7370 hc        1 AOE      0.052700
     48 H111       -2.6870   -2.1420    0.2190 hc        1 AOE      0.044700
     49 H112       -2.1690   -0.8930   -0.9810 hc        1 AOE      0.044700
     50 H121       -4.1900    0.4000   -0.7080 hc        1 AOE      0.045700
     51 H122       -4.6420   -1.3300   -0.9890 hc        1 AOE      0.045700
     52 HC41       -4.0720    1.2960    1.4940 hc        1 AOE      0.044700
     53 H151       -5.2140   -0.2320    3.9050 hc        1 AOE      0.044200
     54 H152       -5.0560    1.5480    3.6380 hc        1 AOE      0.044200
     55 H161       -7.0350    1.6020    2.3790 hc        1 AOE      0.048200
     56 H162       -7.3270   -0.0960    2.9300 hc        1 AOE      0.048200
     57 HC71       -6.3190    0.9190    0.2480 h1        1 AOE      0.032700
     58 H181       -5.7820   -2.6180    0.8370 hc        1 AOE      0.042367
     59 H182       -4.1630   -2.5750    1.6490 hc        1 AOE      0.042367
     60 H183       -5.6460   -2.0350    2.5460 hc        1 AOE      0.042367
     61 HO71       -8.1770   -0.4140    0.6030 ho        1 AOE      0.400000
     62 H191       -2.6450    2.4020    2.4960 hc        1 AOE      0.046700
     63 H192       -0.8880    1.9740    2.4590 hc        1 AOE      0.046700
     64 H201       -0.7830    2.3880    4.9690 hc        1 AOE      0.039200
     65 H202       -2.5220    2.8710    4.9370 hc        1 AOE      0.039200
     66 H211       -0.2560    4.2010    3.2940 hc        1 AOE      0.042200
     67 H212       -1.9920    4.6960    3.2920 hc        1 AOE      0.042200
     68 H221       -1.8720    5.1610    5.7580 hc        1 AOE      0.041200
     69 H222       -0.1440    4.6360    5.7800 hc        1 AOE      0.041200
     70 H231       -1.3070    6.9760    4.1140 hc        1 AOE      0.043200
     71 H232        0.4180    6.4420    4.1090 hc        1 AOE      0.043200
     72 H241       -1.1680    7.4300    6.5820 hc        1 AOE      0.043200
     73 H242        0.5510    6.8730    6.5930 hc        1 AOE      0.043200
     74 H251        1.1390    8.6730    4.9250 hc        1 AOE      0.048700
     75 H252       -0.5780    9.2360    4.9330 hc        1 AOE      0.048700
     76 H261       -0.4280    9.6800    7.4040 hc        1 AOE      0.047700
     77 H262        1.2860    9.1010    7.4060 hc        1 AOE      0.047700
     78 H271        0.1820   11.4800    5.7420 hc        1 AOE      0.071700
     79 H272        1.8940   10.9000    5.7410 hc        1 AOE      0.071700
     80 H281        0.3200   11.9250    8.2170 hc        1 AOE      0.098200
     81 H282        2.0360   11.3160    8.2310 hc        1 AOE      0.098200
     82 H301        3.1530   15.7850    9.0090 hx        1 AOE      0.108700
     83 H302        4.0350   14.3670    8.2410 hx        1 AOE      0.108700
     84 H303        3.0790   15.5260    7.1930 hx        1 AOE      0.108700
     85 H311       -0.1950   14.2640    8.6000 hx        1 AOE      0.098200
     86 H312        0.7570   15.5430    9.5040 hx        1 AOE      0.098200
     87 H321        1.1880   16.7910    7.4150 hc        1 AOE      0.072700
     88 H322        0.4630   15.4760    6.4010 hc        1 AOE      0.072700
     89 H331       -1.0260   17.0880    8.5970 hc        1 AOE      0.052200
     90 H332       -1.7480   15.8000    7.5520 hc        1 AOE      0.052200
     91 H341       -0.4860   18.4500    6.5510 hc        1 AOE      0.052033
     92 H342       -2.2530   18.0660    6.6600 hc        1 AOE      0.052033
     93 H343       -1.1980   17.1570    5.5000 hc        1 AOE      0.052033
     94 H291        2.0270   13.6150    9.2240 hn        1 AOE      0.448800
@<TRIPOS>BOND
     1    1    2 ar
     2    1   11 ar
     3    1   39 1
     4    2    3 ar
     5    2   40 1
     6    3    4 1
     7    3    5 ar
     8    4   41 1
     9    5    6 ar
    10    5   42 1
    11    6    7 1
    12    6   11 ar
    13    7    8 1
    14    7   43 1
    15    7   44 1
    16    8    9 1
    17    8   21 1
    18    8   45 1
    19    9   10 1
    20    9   15 1
    21    9   46 1
    22   10   11 1
    23   10   12 1
    24   10   47 1
    25   12   13 1
    26   12   48 1
    27   12   49 1
    28   13   14 1
    29   13   50 1
    30   13   51 1
    31   14   15 1
    32   14   18 1
    33   14   19 1
    34   15   16 1
    35   15   52 1
    36   16   17 1
    37   16   53 1
    38   16   54 1
    39   17   18 1
    40   17   55 1
    41   17   56 1
    42   18   20 1
    43   18   57 1
    44   19   58 1
    45   19   59 1
    46   19   60 1
    47   20   61 1
    48   21   22 1
    49   21   62 1
    50   21   63 1
    51   22   23 1
    52   22   64 1
    53   22   65 1
    54   23   24 1
    55   23   66 1
    56   23   67 1
    57   24   25 1
    58   24   68 1
    59   24   69 1
    60   25   26 1
    61   25   70 1
    62   25   71 1
    63   26   27 1
    64   26   72 1
    65   26   73 1
    66   27   28 1
    67   27   74 1
    68   27   75 1
    69   28   29 1
    70   28   76 1
    71   28   77 1
    72   29   30 1
    73   29   78 1
    74   29   79 1
    75   30   31 1
    76   30   80 1
    77   30   81 1
    78   31   32 2
    79   31   33 1
    80   33   34 1
    81   33   35 1
    82   33   94 1
    83   34   82 1
    84   34   83 1
    85   34   84 1
    86   35   36 1
    87   35   85 1
    88   35   86 1
    89   36   37 1
    90   36   87 1
    91   36   88 1
    92   37   38 1
    93   37   89 1
    94   37   90 1
    95   38   91 1
    96   38   92 1
    97   38   93 1
@<TRIPOS>SUBSTRUCTURE
     1 AOE         1 TEMP              0 ****  ****    0 ROOT
