@<TRIPOS>MOLECULE
AOF
   36    35     1     0     0
SMALL
bcc


@<TRIPOS>ATOM
      1 C2         -0.1230    0.4180   -0.1480 c         1 AOF      0.803500
      2 N3          1.2620    0.2910   -0.2060 n         1 AOF     -0.590500
      3 O4          3.2910   -0.0580    0.7570 o         1 AOF     -0.498000
      4 C5          1.3600   -0.2340    2.1760 cc        1 AOF     -0.393600
      5 C6         -0.0730   -0.0560    2.2880 cc        1 AOF      0.658200
      6 O3P        -6.4360    4.2470    3.4160 o         1 AOF     -0.839833
      7 P          -5.3100    5.0220    3.9910 p4        1 AOF      1.519300
      8 O1P        -4.8390    6.2710    3.3640 o         1 AOF     -0.839833
      9 O2P        -4.9260    4.6700    5.3820 o         1 AOF     -0.888633
     10 O5'        -4.0650    3.4340    3.3360 o         1 AOF     -0.573100
     11 C4'        -4.0880    1.0290    3.7300 c3        1 AOF     -0.000900
     12 O4'        -2.8420    0.9270    3.0440 os        1 AOF     -0.430600
     13 C3'        -3.9700    0.2860    5.0880 c3        1 AOF      0.116100
     14 O3'        -4.9760   -0.6980    5.2130 oh        1 AOF     -0.594800
     15 C2'        -2.5440   -0.2920    5.0830 c3        1 AOF      0.093100
     16 O2'        -2.5890   -1.6390    5.5200 oh        1 AOF     -0.621800
     17 C1'        -2.1020   -0.2130    3.5860 c3        1 AOF      0.329300
     18 N1'        -0.6890   -0.1600    3.4610 n2        1 AOF     -0.786900
     19 N1         -0.7670    0.2310    1.0750 n         1 AOF     -0.509400
     20 O2         -0.7840    0.6670   -1.1940 o         1 AOF     -0.734500
     21 C4          2.0400    0.0000    0.9400 cd        1 AOF      0.409000
     22 N5          2.1060   -0.6820    3.3060 nh        1 AOF     -0.710600
     23 H1          1.7090    0.4490   -1.0770 hn        1 AOF      0.318500
     24 H4         -5.3600    2.5740    4.6780 h4        1 AOF      0.081200
     25 H5         -4.7180    2.5820    7.4180 ha        1 AOF      0.000000
     26 H6         -4.7550    3.1030    6.9810 ha        1 AOF      0.000000
     27 H7         -4.8770    0.5320    3.0930 h1        1 AOF      0.069700
     28 H8         -4.1380    0.9820    5.9550 h1        1 AOF      0.103700
     29 H9         -4.6760   -1.4820    4.7350 ho        1 AOF      0.406000
     30 H10        -1.8710    0.3050    5.7510 h1        1 AOF      0.077700
     31 H11        -1.7190   -2.0080    5.3190 ho        1 AOF      0.424000
     32 H12        -2.5370   -1.1240    3.0600 h2        1 AOF      0.002700
     33 H13        -1.7280    0.5020    1.1120 hn        1 AOF      0.346500
     34 H14         2.1270    0.0630    3.9850 hn        1 AOF      0.318300
     35 H15         3.0560   -0.8370    3.0080 hn        1 AOF      0.318300
     36 C5'        -4.5280    2.4550    3.9370 c         1 AOF      0.617900
@<TRIPOS>BOND
     1    1    2 1
     2    1   19 1
     3    1   20 2
     4    2   21 1
     5    2   23 1
     6    3   21 1
     7    4    5 1
     8    4   21 2
     9    4   22 1
    10    5   18 2
    11    5   19 1
    12    6    7 1
    13    7    8 1
    14    7    9 2
    15   10   36 2
    16   11   12 1
    17   11   13 1
    18   11   27 1
    19   11   36 1
    20   12   17 1
    21   13   14 1
    22   13   15 1
    23   13   28 1
    24   14   29 1
    25   15   16 1
    26   15   17 1
    27   15   30 1
    28   16   31 1
    29   17   18 1
    30   17   32 1
    31   19   33 1
    32   22   34 1
    33   22   35 1
    34   24   36 1
    35   25   26 1
@<TRIPOS>SUBSTRUCTURE
     1 AOF         1 TEMP              0 ****  ****    0 ROOT
