@<TRIPOS>MOLECULE
AOI
   51    54     1     0     0
SMALL
bcc


@<TRIPOS>ATOM
      1 C1          0.0910   -0.0250    0.0320 c3        1 AOI     -0.069400
      2 C2          1.5830    0.1780    0.1810 c3        1 AOI     -0.109400
      3 C3          2.0490    0.0850    1.6290 c3        1 AOI      0.143100
      4 O3          1.5850    1.1780    2.4150 oh        1 AOI     -0.600800
      5 C4          1.5420   -1.1890    2.2980 c3        1 AOI     -0.067400
      6 C5          0.0420   -1.3450    2.1300 c3        1 AOI     -0.057700
      7 C6         -0.4610   -2.5780    2.8610 c3        1 AOI     -0.072400
      8 C7         -1.9730   -2.6380    2.8160 c3        1 AOI     -0.073400
      9 C8         -2.4820   -2.6050    1.3850 c3        1 AOI     -0.045700
     10 C9         -1.9400   -1.3730    0.6350 c3        1 AOI     -0.049700
     11 C10        -0.3960   -1.3410    0.6520 c3        1 AOI     -0.035000
     12 C11        -2.5150   -1.2630   -0.7730 c3        1 AOI     -0.075400
     13 C12        -4.0320   -1.3690   -0.8370 c3        1 AOI     -0.056400
     14 C13        -4.5110   -2.6110   -0.1090 c3        1 AOI     -0.152000
     15 C14        -3.9930   -2.5250    1.3460 c3        1 AOI     -0.064700
     16 C15        -4.8370   -3.5400    2.1100 c3        1 AOI     -0.072400
     17 C16        -6.2160   -3.4500    1.4500 c3        1 AOI     -0.188400
     18 C17        -6.0130   -2.7550    0.1170 c         1 AOI      0.577100
     19 O17        -6.9070   -2.3900   -0.6400 o         1 AOI     -0.521100
     20 C18        -4.0770   -3.8690   -0.8500 c3        1 AOI     -0.082100
     21 C19         0.1910   -2.5080   -0.1260 c3        1 AOI     -0.085100
     22 H1         -0.1650   -0.0090   -1.0600 hc        1 AOI      0.044700
     23 H2         -0.4440    0.8280    0.5260 hc        1 AOI      0.044700
     24 H3          1.8580    1.1850   -0.2320 hc        1 AOI      0.044200
     25 H4          2.1350   -0.5930   -0.4190 hc        1 AOI      0.044200
     26 H5          3.1780    0.0930    1.6510 h1        1 AOI      0.028700
     27 H6          1.7640    1.9810    1.9120 ho        1 AOI      0.398000
     28 H7          1.7830   -1.1410    3.3930 hc        1 AOI      0.051200
     29 H8          2.0870   -2.0650    1.8630 hc        1 AOI      0.051200
     30 H9         -0.4330   -0.4380    2.6120 hc        1 AOI      0.064700
     31 H10        -0.1210   -2.5420    3.9290 hc        1 AOI      0.041700
     32 H11        -0.0240   -3.5020    2.4010 hc        1 AOI      0.041700
     33 H12        -2.4000   -1.7720    3.3880 hc        1 AOI      0.041200
     34 H13        -2.3320   -3.5780    3.3120 hc        1 AOI      0.041200
     35 H14        -2.1430   -3.5430    0.8660 hc        1 AOI      0.055700
     36 H15        -2.2880   -0.4620    1.2070 hc        1 AOI      0.048700
     37 H16        -2.0640   -2.0540   -1.4260 hc        1 AOI      0.042700
     38 H17        -2.2230   -0.2680   -1.2050 hc        1 AOI      0.042700
     39 H18        -4.3590   -1.4060   -1.9080 hc        1 AOI      0.050700
     40 H19        -4.4980   -0.4610   -0.3730 hc        1 AOI      0.050700
     41 H20        -4.2800   -1.5070    1.7450 hc        1 AOI      0.051700
     42 H21        -4.8870   -3.2890    3.1970 hc        1 AOI      0.049200
     43 H22        -4.4130   -4.5690    2.0130 hc        1 AOI      0.049200
     44 H23        -6.9280   -2.8580    2.0780 hc        1 AOI      0.073700
     45 H24        -6.6600   -4.4620    1.2840 hc        1 AOI      0.073700
     46 H25        -2.9760   -3.8710   -1.0300 hc        1 AOI      0.043367
     47 H26        -4.5970   -3.9150   -1.8380 hc        1 AOI      0.043367
     48 H27        -4.3400   -4.7800   -0.2600 hc        1 AOI      0.043367
     49 H28        -0.0160   -2.3900   -1.2180 hc        1 AOI      0.034367
     50 H29         1.2980   -2.5550    0.0090 hc        1 AOI      0.034367
     51 H30        -0.2400   -3.4800    0.2120 hc        1 AOI      0.034367
@<TRIPOS>BOND
     1    1    2 1   
     2    1   11 1   
     3    1   22 1   
     4    1   23 1   
     5    2    3 1   
     6    2   24 1   
     7    2   25 1   
     8    3    4 1   
     9    3    5 1   
    10    3   26 1   
    11    4   27 1   
    12    5    6 1   
    13    5   28 1   
    14    5   29 1   
    15    6    7 1   
    16    6   11 1   
    17    6   30 1   
    18    7    8 1   
    19    7   31 1   
    20    7   32 1   
    21    8    9 1   
    22    8   33 1   
    23    8   34 1   
    24    9   10 1   
    25    9   15 1   
    26    9   35 1   
    27   10   11 1   
    28   10   12 1   
    29   10   36 1   
    30   11   21 1   
    31   12   13 1   
    32   12   37 1   
    33   12   38 1   
    34   13   14 1   
    35   13   39 1   
    36   13   40 1   
    37   14   15 1   
    38   14   18 1   
    39   14   20 1   
    40   15   16 1   
    41   15   41 1   
    42   16   17 1   
    43   16   42 1   
    44   16   43 1   
    45   17   18 1   
    46   17   44 1   
    47   17   45 1   
    48   18   19 2   
    49   20   46 1   
    50   20   47 1   
    51   20   48 1   
    52   21   49 1   
    53   21   50 1   
    54   21   51 1   
@<TRIPOS>SUBSTRUCTURE
     1 AOI         1 TEMP              0 ****  ****    0 ROOT
