@<TRIPOS>MOLECULE
molecule
   51    54     1     0     0
SMALL
bcc


@<TRIPOS>ATOM
      1 C1           0.0000     0.0000     0.0000 c3         1 AOI      -0.065400
      2 C2           1.5300     0.0000     0.0000 c3         1 AOI      -0.092400
      3 C3           2.0400     0.0000     1.4430 c3         1 AOI       0.147100
      4 O3           1.5630     1.1670     2.1160 oh         1 AOI      -0.604800
      5 C4           1.5300    -1.2500     2.1630 c3         1 AOI      -0.085400
      6 C5           0.0000    -1.2490     2.1640 c3         1 AOI      -0.051700
      7 C6          -0.5110    -2.4960     2.8870 c3         1 AOI      -0.079400
      8 C7          -2.0400    -2.4970     2.8870 c3         1 AOI      -0.074400
      9 C8          -2.5490    -2.5030     1.4450 c3         1 AOI      -0.062700
     10 C9          -2.0410    -1.2450     0.7250 c3         1 AOI      -0.051700
     11 C10         -0.5110    -1.2490     0.7220 c3         1 AOI      -0.052000
     12 C11         -2.5510    -1.1750    -0.7100 c3         1 AOI      -0.085400
     13 C12         -4.0850    -1.2700    -0.7640 c3         1 AOI      -0.056400
     14 C13         -4.4810    -2.5670    -0.0870 c3         1 AOI      -0.179000
     15 C14         -4.0660    -2.4530     1.4220 c3         1 AOI      -0.063700
     16 C15         -4.7820    -3.6710     2.0170 c3         1 AOI      -0.076400
     17 C16         -6.1630    -3.6310     1.3080 c3         1 AOI      -0.190400
     18 C17         -5.9470    -2.8800    -0.0240 c          1 AOI       0.589100
     19 O17         -6.7900    -2.5810    -0.8340 o          1 AOI      -0.507100
     20 C18         -3.7340    -3.7340    -0.7360 c3         1 AOI      -0.082100
     21 C19         -0.0060    -2.5000    -0.0010 c3         1 AOI      -0.092100
     22 H1          -0.3600    -0.0030    -1.0220 hc         1 AOI       0.050700
     23 H2          -0.3600     0.8840     0.5120 hc         1 AOI       0.050700
     24 H3           1.8890    -0.8860    -0.5090 hc         1 AOI       0.045700
     25 H4           1.8890     0.8860    -0.5090 hc         1 AOI       0.045700
     26 H5           3.1230    -0.0040     1.4400 h1         1 AOI       0.026700
     27 H6           2.2950     1.7030     2.3730 ho         1 AOI       0.398000
     28 H7           1.8900    -2.1330     1.6490 hc         1 AOI       0.047200
     29 H8           1.8900    -1.2480     3.1850 hc         1 AOI       0.047200
     30 H9          -0.3590    -0.3630     2.6740 hc         1 AOI       0.070700
     31 H10         -0.1520    -2.4910     3.9090 hc         1 AOI       0.041200
     32 H11         -0.1500    -3.3810     2.3770 hc         1 AOI       0.041200
     33 H12         -2.4000    -1.6090     3.3920 hc         1 AOI       0.042200
     34 H13         -2.3990    -3.3810     3.3990 hc         1 AOI       0.042200
     35 H14         -2.1990    -3.3900     0.9310 hc         1 AOI       0.065700
     36 H15         -2.3880    -0.3700     1.2620 hc         1 AOI       0.054700
     37 H16         -2.2390    -0.2360    -1.1510 hc         1 AOI       0.048200
     38 H17         -2.1260    -1.9960    -1.2760 hc         1 AOI       0.048200
     39 H18         -4.4170    -1.2780    -1.7960 hc         1 AOI       0.051700
     40 H19         -4.5240    -0.4320    -0.2370 hc         1 AOI       0.051700
     41 H20         -4.4350    -1.5310     1.8560 hc         1 AOI       0.065700
     42 H21         -4.2520    -4.5840     1.7720 hc         1 AOI       0.051200
     43 H22         -4.8980    -3.5610     3.0890 hc         1 AOI       0.051200
     44 H23         -6.8790    -3.0980     1.9220 hc         1 AOI       0.069200
     45 H24         -6.5090    -4.6390     1.1130 hc         1 AOI       0.069200
     46 H25         -4.4360    -4.3560    -1.2770 hc         1 AOI       0.044700
     47 H26         -2.9880    -3.3490    -1.4210 hc         1 AOI       0.044700
     48 H27         -3.2480    -4.3230     0.0330 hc         1 AOI       0.044700
     49 H28         -0.2820    -2.4480    -1.0470 hc         1 AOI       0.035700
     50 H29          1.0720    -2.5570     0.0860 hc         1 AOI       0.035700
     51 H30         -0.4520    -3.3800     0.4460 hc         1 AOI       0.035700
@<TRIPOS>BOND
     1    21    11 1
     2    20    14 1
     3     2     1 1
     4     2     3 1
     5    12    13 1
     6    12    10 1
     7     1    11 1
     8    13    14 1
     9    11    10 1
    10    11     6 1
    11    14    18 1
    12    14    15 1
    13     3     5 1
    14     3     4 1
    15    10     9 1
    16    19    18 2
    17    18    17 1
    18     5     6 1
    19     9    15 1
    20     9     8 1
    21     6     7 1
    22    15    16 1
    23     7     8 1
    24    17    16 1
    25     1    22 1
    26     1    23 1
    27     2    24 1
    28     2    25 1
    29     3    26 1
    30     4    27 1
    31     5    28 1
    32     5    29 1
    33     6    30 1
    34     7    31 1
    35     7    32 1
    36     8    33 1
    37     8    34 1
    38     9    35 1
    39    10    36 1
    40    12    37 1
    41    12    38 1
    42    13    39 1
    43    13    40 1
    44    15    41 1
    45    16    42 1
    46    16    43 1
    47    17    44 1
    48    17    45 1
    49    20    46 1
    50    20    47 1
    51    20    48 1
    52    21    49 1
    53    21    50 1
    54    21    51 1
@<TRIPOS>SUBSTRUCTURE
     1 AOI         1 TEMP              0 ****  ****    0 ROOT
