@<TRIPOS>MOLECULE
molecule
   26    28     1     0     0
SMALL
bcc


@<TRIPOS>ATOM
      1 N1           0.0000     0.0000     0.0000 ns         1 AOJ      -0.583500
      2 C4           1.3380     0.0000     0.0000 c          1 AOJ       0.703500
      3 C5           2.2270     2.5100     1.5960 cc         1 AOJ      -0.076100
      4 C6           4.3590     2.6480     2.2940 ca         1 AOJ      -0.051200
      5 C7           5.6350     3.0150     2.7120 ca         1 AOJ      -0.114000
      6 C8           6.5710     2.0440     2.9900 ca         1 AOJ      -0.143000
      7 C10          5.0000     0.3130     2.4430 ca         1 AOJ      -0.122000
      8 C11          6.2570     0.6960     2.8560 ca         1 AOJ       0.110900
      9 C9           4.0400     1.2860     2.1580 ca         1 AOJ      -0.064800
     10 N2           3.2360     3.3660     1.9400 na         1 AOJ      -0.173400
     11 C12          2.6460     1.2390     1.7100 cd         1 AOJ      -0.157400
     12 C1           1.8350     0.0000     1.4290 c3         1 AOJ      -0.077500
     13 O2           2.0410     0.0010    -0.9880 o          1 AOJ      -0.573500
     14 C3          -0.5560    -0.0010     1.2180 c          1 AOJ       0.699500
     15 O1          -1.7460     0.0030     1.4480 o          1 AOJ      -0.587500
     16 C2           0.5380    -0.0000     2.2640 c3         1 AOJ      -0.174400
     17 H4          -0.5410     0.0000    -0.8420 hn         1 AOJ       0.344500
     18 H7           5.8900     4.0620     2.8210 ha         1 AOJ       0.134000
     19 H8           7.5630     2.3330     3.3150 ha         1 AOJ       0.148000
     20 H9           4.7580    -0.7380     2.3390 ha         1 AOJ       0.146000
     21 H6           3.1700     4.3640     1.9360 hn         1 AOJ       0.302700
     22 H1           2.4130    -0.8940     1.6280 hc         1 AOJ       0.098700
     23 H3           0.4800    -0.8930     2.8750 hc         1 AOJ       0.091200
     24 H2           0.4800     0.8920     2.8750 hc         1 AOJ       0.091200
     25 H5           1.2360     2.8120     1.2790 h4         1 AOJ       0.170000
     26 F1           7.1900    -0.2420     3.1320 f          1 AOJ      -0.141900
@<TRIPOS>BOND
     1     5     6 ar
     2     5     4 ar
     3     6     8 ar
     4    10     4 1
     5    10     3 1
     6     4     9 ar
     7     3    11 2
     8     8    26 1
     9     8     7 ar
    10     9     7 ar
    11     9    11 1
    12    11    12 1
    13    13     2 2
    14     2    12 1
    15     2     1 1
    16    12    16 1
    17     1    14 1
    18    16    14 1
    19    14    15 2
    20     1    17 1
    21     3    25 1
    22     5    18 1
    23     6    19 1
    24     7    20 1
    25    10    21 1
    26    12    22 1
    27    16    23 1
    28    16    24 1
@<TRIPOS>SUBSTRUCTURE
     1 AOJ         1 TEMP              0 ****  ****    0 ROOT
