@<TRIPOS>MOLECULE
molecule
   55    58     1     0     0
SMALL
bcc


@<TRIPOS>ATOM
      1 Cl           0.0000     0.0000     0.0000 cl         1 AOK      -0.097400
      2 C24          1.7360     0.0000     0.0000 ca         1 AOK       0.031400
      3 C8           2.4350     0.0000     1.2080 cp         1 AOK      -0.022000
      4 C7           1.6980    -0.0000     2.4950 cp         1 AOK      -0.049000
      5 C6           1.7930     1.0930     3.3550 ca         1 AOK      -0.106000
      6 C5           1.1030     1.0870     4.5510 ca         1 AOK      -0.137000
      7 C4           0.3220     0.0000     4.8970 ca         1 AOK      -0.120000
      8 C3           0.2250    -1.0860     4.0480 ca         1 AOK      -0.128000
      9 C2           0.9040    -1.0900     2.8460 ca         1 AOK      -0.051300
     10 C1           0.7980    -2.2750     1.9220 c3         1 AOK      -0.051100
     11 C            1.9720    -3.2230     2.1700 c3         1 AOK      -0.087100
     12 C23          2.4290    -0.0070    -1.1950 ca         1 AOK      -0.100000
     13 C11          3.8110    -0.0070    -1.1950 ca         1 AOK      -0.080300
     14 C10          4.5090    -0.0010    -0.0010 ca         1 AOK      -0.125000
     15 C9           3.8280     0.0010     1.1990 ca         1 AOK      -0.110000
     16 C12          4.5620    -0.0140    -2.5020 c3         1 AOK       0.206100
     17 N            4.8050     1.3690    -2.9350 n7         1 AOK      -0.821200
     18 C13          5.5360     1.4010    -4.2090 c3         1 AOK       0.159800
     19 C14          5.7710     2.8540    -4.6260 c3         1 AOK      -0.080700
     20 C15          6.5200     2.8860    -5.9330 cc         1 AOK       0.418800
     21 N2           6.1080     3.5410    -7.0520 na         1 AOK      -0.261300
     22 C22          7.0620     3.3310    -8.0270 ca         1 AOK      -0.099200
     23 C16          8.0520     2.5280    -7.4330 ca         1 AOK       0.097400
     24 N1           7.6600     2.2980    -6.1540 nd         1 AOK      -0.607100
     25 C21          7.2000     3.7330    -9.3470 ca         1 AOK      -0.125000
     26 C20          8.3080     3.3410   -10.0690 ca         1 AOK      -0.111000
     27 C18          9.2830     2.5480    -9.4830 ca         1 AOK      -0.100300
     28 C19         10.4870     2.1290   -10.2890 c3         1 AOK      -0.043800
     29 C17          9.1660     2.1430    -8.1840 ca         1 AOK      -0.073000
     30 H1           2.4050     1.9450     3.0850 ha         1 AOK       0.134000
     31 H2           1.1750     1.9360     5.2210 ha         1 AOK       0.130000
     32 H3          -0.2150    -0.0010     5.8380 ha         1 AOK       0.129000
     33 H4          -0.3900    -1.9340     4.3230 ha         1 AOK       0.132000
     34 H5           0.8200    -1.9340     0.8940 hc         1 AOK       0.055700
     35 H6          -0.1330    -2.7970     2.1090 hc         1 AOK       0.055700
     36 H7           2.4340    -3.4810     1.2250 hc         1 AOK       0.035700
     37 H8           2.7010    -2.7360     2.8060 hc         1 AOK       0.035700
     38 H9           1.6140    -4.1230     2.6550 hc         1 AOK       0.035700
     39 H10          1.8880    -0.0110    -2.1330 ha         1 AOK       0.150000
     40 H11          5.5920    -0.0010    -0.0080 ha         1 AOK       0.133000
     41 H12          4.3760     0.0030     2.1340 ha         1 AOK       0.143000
     42 H13          3.9750    -0.5290    -3.2530 h1         1 AOK       0.042700
     43 H14          5.5090    -0.5240    -2.3720 h1         1 AOK       0.042700
     44 H15          5.3350     1.8490    -2.2350 hn         1 AOK       0.355800
     45 H17          4.9550     0.8960    -4.9710 h1         1 AOK       0.049200
     46 H18          6.4890     0.9010    -4.0910 h1         1 AOK       0.049200
     47 H19          4.8170     3.3540    -4.7440 hc         1 AOK       0.064700
     48 H20          6.3520     3.3590    -3.8640 hc         1 AOK       0.064700
     49 H21          5.3340     4.1730    -7.1120 hn         1 AOK       0.302700
     50 H23          6.4410     4.3530    -9.8090 ha         1 AOK       0.126000
     51 H24          8.4160     3.6530   -11.1010 ha         1 AOK       0.134000
     52 H25         11.3510     2.6990    -9.9690 hc         1 AOK       0.042367
     53 H26         10.3000     2.3150   -11.3400 hc         1 AOK       0.042367
     54 H27         10.6740     1.0730   -10.1360 hc         1 AOK       0.042367
     55 H28          9.9340     1.5230    -7.7370 ha         1 AOK       0.142000
@<TRIPOS>BOND
     1    11    10 1
     2    29    23 ar
     3    29    27 ar
     4    24    23 1
     5    24    20 2
     6    28    27 1
     7    23    22 ar
     8    27    26 ar
     9    19    20 1
    10    19    18 1
    11    20    21 1
    12    10     9 1
    13    22    21 1
    14    22    25 ar
    15    26    25 ar
    16    18    17 1
    17    17    16 1
    18     9     8 ar
    19     9     4 ar
    20     8     7 ar
    21     1     2 1
    22    12     2 ar
    23    12    13 ar
    24    16    13 1
    25     2     3 ar
    26    13    14 ar
    27    14    15 ar
    28     3    15 ar
    29     3     4 1
    30     4     5 ar
    31     7     6 ar
    32     5     6 ar
    33     5    30 1
    34     6    31 1
    35     7    32 1
    36     8    33 1
    37    10    34 1
    38    10    35 1
    39    11    36 1
    40    11    37 1
    41    11    38 1
    42    12    39 1
    43    14    40 1
    44    15    41 1
    45    16    42 1
    46    16    43 1
    47    17    44 1
    48    18    45 1
    49    18    46 1
    50    19    47 1
    51    19    48 1
    52    21    49 1
    53    25    50 1
    54    26    51 1
    55    28    52 1
    56    28    53 1
    57    28    54 1
    58    29    55 1
@<TRIPOS>SUBSTRUCTURE
     1 AOK         1 TEMP              0 ****  ****    0 ROOT
