@<TRIPOS>MOLECULE
AOK
   55    58     1     0     0
SMALL
bcc


@<TRIPOS>ATOM
      1 Cl           0.0000     0.0000     0.0000 cl         1 AOK      -0.010400
      2 C24          1.7360     0.0000     0.0000 ca         1 AOK      -0.034600
      3 C8           2.4350     0.0000     1.2080 cp         1 AOK      -0.018000
      4 C7           1.6980    -0.0000     2.4950 cp         1 AOK      -0.044000
      5 C6           1.7930     1.0930     3.3550 ca         1 AOK      -0.081000
      6 C5           1.1030     1.0870     4.5510 ca         1 AOK      -0.109000
      7 C4           0.3220     0.0000     4.8970 ca         1 AOK      -0.094000
      8 C3           0.2250    -1.0860     4.0480 ca         1 AOK      -0.099000
      9 C2           0.9040    -1.0900     2.8460 ca         1 AOK      -0.060300
     10 C1           0.7980    -2.2750     1.9220 c3         1 AOK      -0.003100
     11 C            1.9720    -3.2230     2.1700 c3         1 AOK       0.006900
     12 C23          2.4290    -0.0070    -1.1950 ca         1 AOK      -0.077000
     13 C11          3.8110    -0.0070    -1.1950 ca         1 AOK      -0.089300
     14 C10          4.5090    -0.0010    -0.0010 ca         1 AOK      -0.095000
     15 C9           3.8280     0.0010     1.1990 ca         1 AOK      -0.084000
     16 C12          4.5620    -0.0140    -2.5020 c3         1 AOK       0.204100
     17 N            4.8050     1.3690    -2.9350 n7         1 AOK      -0.588200
     18 C13          5.5360     1.4010    -4.2090 c3         1 AOK       0.142800
     19 C14          5.7710     2.8540    -4.6260 c3         1 AOK      -0.009700
     20 C15          6.5200     2.8860    -5.9330 cc         1 AOK       0.201800
     21 N2           6.1080     3.5410    -7.0520 na         1 AOK       0.271700
     22 C22          7.0620     3.3310    -8.0270 ca         1 AOK      -0.283200
     23 C16          8.0520     2.5280    -7.4330 ca         1 AOK       0.070400
     24 N1           7.6600     2.2980    -6.1540 nd         1 AOK      -0.522100
     25 C21          7.2000     3.7330    -9.3470 ca         1 AOK      -0.083000
     26 C20          8.3080     3.3410   -10.0690 ca         1 AOK      -0.089000
     27 C18          9.2830     2.5480    -9.4830 ca         1 AOK      -0.106300
     28 C19         10.4870     2.1290   -10.2890 c3         1 AOK       0.068200
     29 C17          9.1660     2.1430    -8.1840 ca         1 AOK      -0.044000
     30 H1           2.4050     1.9450     3.0850 ha         1 AOK       0.108000
     31 H2           1.1750     1.9360     5.2210 ha         1 AOK       0.103000
     32 H3          -0.2150    -0.0010     5.8380 ha         1 AOK       0.101000
     33 H4          -0.3900    -1.9340     4.3230 ha         1 AOK       0.107000
     34 H5           0.8200    -1.9340     0.8940 hc         1 AOK       0.028700
     35 H6          -0.1330    -2.7970     2.1090 hc         1 AOK       0.028700
     36 H7           2.4340    -3.4810     1.2250 hc         1 AOK       0.003367
     37 H8           2.7010    -2.7360     2.8060 hc         1 AOK       0.003367
     38 H9           1.6140    -4.1230     2.6550 hc         1 AOK       0.003367
     39 H10          1.8880    -0.0110    -2.1330 ha         1 AOK       0.120000
     40 H11          5.5920    -0.0010    -0.0080 ha         1 AOK       0.107000
     41 H12          4.3760     0.0030     2.1340 ha         1 AOK       0.113000
     42 H13          3.9750    -0.5290    -3.2530 h1         1 AOK       0.012700
     43 H14          5.5090    -0.5240    -2.3720 h1         1 AOK       0.012700
     44 H15          5.3350     1.8490    -2.2350 hn         1 AOK       0.256800
     45 H17          4.9550     0.8960    -4.9710 h1         1 AOK       0.019700
     46 H18          6.4890     0.9010    -4.0910 h1         1 AOK       0.019700
     47 H19          4.8170     3.3540    -4.7440 hc         1 AOK       0.024200
     48 H20          6.3520     3.3590    -3.8640 hc         1 AOK       0.024200
     49 H21          5.3340     4.1730    -7.1120 hn         1 AOK       0.126700
     50 H23          6.4410     4.3530    -9.8090 ha         1 AOK       0.099000
     51 H24          8.4160     3.6530   -11.1010 ha         1 AOK       0.106000
     52 H25         11.3510     2.6990    -9.9690 hc         1 AOK       0.006367
     53 H26         10.3000     2.3150   -11.3400 hc         1 AOK       0.006367
     54 H27         10.6740     1.0730   -10.1360 hc         1 AOK       0.006367
     55 H28          9.9340     1.5230    -7.7370 ha         1 AOK       0.113000
@<TRIPOS>BOND
     1     1     2 1   
     2     2     3 ar  
     3     2    12 ar  
     4     3     4 1   
     5     3    15 ar  
     6     4     5 ar  
     7     4     9 ar  
     8     5     6 ar  
     9     5    30 1   
    10     6     7 ar  
    11     6    31 1   
    12     7     8 ar  
    13     7    32 1   
    14     8     9 ar  
    15     8    33 1   
    16     9    10 1   
    17    10    11 1   
    18    10    34 1   
    19    10    35 1   
    20    11    36 1   
    21    11    37 1   
    22    11    38 1   
    23    12    13 ar  
    24    12    39 1   
    25    13    14 ar  
    26    13    16 1   
    27    14    15 ar  
    28    14    40 1   
    29    15    41 1   
    30    16    17 1   
    31    16    42 1   
    32    16    43 1   
    33    17    18 1   
    34    17    44 1   
    35    18    19 1   
    36    18    45 1   
    37    18    46 1   
    38    19    20 1   
    39    19    47 1   
    40    19    48 1   
    41    20    21 1   
    42    20    24 2   
    43    21    22 1   
    44    21    49 1   
    45    22    23 ar  
    46    22    25 ar  
    47    23    24 1   
    48    23    29 ar  
    49    25    26 ar  
    50    25    50 1   
    51    26    27 ar  
    52    26    51 1   
    53    27    28 1   
    54    27    29 ar  
    55    28    52 1   
    56    28    53 1   
    57    28    54 1   
    58    29    55 1   
@<TRIPOS>SUBSTRUCTURE
     1 AOK         1 TEMP              0 ****  ****    0 ROOT
