@<TRIPOS>MOLECULE
molecule
   22    22     1     0     0
SMALL
bcc


@<TRIPOS>ATOM
      1 O4           0.0000     0.0000     0.0000 oh         1 AOL      -0.593300
      2 C4           1.4290     0.0000     0.0000 c3         1 AOL       0.115100
      3 C3           1.9580     0.0000     1.4490 c3         1 AOL       0.125600
      4 O3           0.9820    -0.5470     2.3370 oh         1 AOL      -0.549800
      5 C2           3.2140    -0.9050     1.3950 c3         1 AOL       0.125600
      6 O2           3.5050    -1.4460     2.6840 oh         1 AOL      -0.549800
      7 C1           2.7890    -2.0220     0.4090 c3         1 AOL       0.115100
      8 O1           1.9930    -3.0020     1.0760 oh         1 AOL      -0.593300
      9 C5           1.9570    -1.2840    -0.6620 c3         1 AOL       0.092500
     10 N5           0.8330    -2.1270    -1.0920 nz         1 AOL      -0.784600
     11 HO4         -0.3140     0.8550    -0.2420 ho         1 AOL       0.440000
     12 H4           1.8040     0.8680    -0.5290 h1         1 AOL       0.070700
     13 H3           2.2300     1.0040     1.7490 h1         1 AOL       0.065200
     14 HO3          0.7910     0.0770     3.0170 ho         1 AOL       0.422000
     15 H2           4.0610    -0.3550     1.0030 h1         1 AOL       0.065200
     16 HO2          4.3810    -1.2050     2.9360 ho         1 AOL       0.422000
     17 H1           3.6620    -2.4780    -0.0420 h1         1 AOL       0.070700
     18 HO1          2.4810    -3.8050     1.1530 ho         1 AOL       0.440000
     19 H5           2.5840    -1.0330    -1.5080 hx         1 AOL       0.109700
     20 HN51         0.3190    -1.6560    -1.8100 hn         1 AOL       0.463800
     21 HN52         0.2310    -2.3050    -0.3130 hn         1 AOL       0.463800
     22 H53          1.1840    -2.9940    -1.4480 hn         1 AOL       0.463800
@<TRIPOS>BOND
     1     1     2 1
     2     1    11 1
     3     2     3 1
     4     2     9 1
     5     2    12 1
     6     3     4 1
     7     3     5 1
     8     3    13 1
     9     4    14 1
    10     5     6 1
    11     5     7 1
    12     5    15 1
    13     6    16 1
    14     7     8 1
    15     7     9 1
    16     7    17 1
    17     8    18 1
    18     9    10 1
    19     9    19 1
    20    10    20 1
    21    10    21 1
    22    22    10 1
@<TRIPOS>SUBSTRUCTURE
     1 AOL         1 TEMP              0 ****  ****    0 ROOT
