@<TRIPOS>MOLECULE
AOM
   53    56     1     0     0
SMALL
bcc


@<TRIPOS>ATOM
      1 C1         -0.0020    0.0890    0.0420 c3        1 AOM     -0.068400
      2 C10         1.5280    0.1580   -0.0500 c3        1 AOM     -0.036000
      3 C11         1.4840   -1.1640   -2.2360 c3        1 AOM     -0.075400
      4 C12         2.0280   -2.3340   -3.0430 c3        1 AOM     -0.063400
      5 C13         3.5460   -2.3310   -3.0390 c3        1 AOM     -0.044000
      6 C14         4.0050   -2.3760   -1.5620 c3        1 AOM     -0.066700
      7 C15         5.4780   -2.7560   -1.6370 c3        1 AOM     -0.068400
      8 C16         5.5720   -3.6950   -2.8420 c3        1 AOM     -0.117400
      9 C17         4.2200   -3.6150   -3.5840 c3        1 AOM      0.141100
     10 C18         4.0780   -1.1350   -3.8100 c3        1 AOM     -0.076100
     11 C19         1.9250    1.4540   -0.7380 c3        1 AOM     -0.086100
     12 C2         -0.5870    1.1380    0.9630 c3        1 AOM     -0.112400
     13 C3          0.0280    1.0740    2.3560 c3        1 AOM      0.142100
     14 C4          1.5500    1.1520    2.2930 c3        1 AOM     -0.071400
     15 C5          2.0890    0.0630    1.3830 c3        1 AOM     -0.055700
     16 C6          3.6080    0.0530    1.3910 c3        1 AOM     -0.072400
     17 C7          4.1320   -1.1250    0.5990 c3        1 AOM     -0.073400
     18 C8          3.5890   -1.1230   -0.8200 c3        1 AOM     -0.047700
     19 C9          2.0500   -1.0730   -0.8230 c3        1 AOM     -0.048700
     20 O3         -0.3990    2.1720    3.1540 oh        1 AOM     -0.600800
     21 O17         4.3790   -3.5190   -4.9880 oh        1 AOM     -0.591800
     22 HC11       -0.3000   -0.9300    0.4040 hc        1 AOM      0.042200
     23 HC12       -0.4420    0.2290   -0.9800 hc        1 AOM      0.042200
     24 H111        0.3690   -1.2750   -2.1730 hc        1 AOM      0.042200
     25 H112        1.6940   -0.2110   -2.7880 hc        1 AOM      0.042200
     26 H121        1.6520   -3.2980   -2.6090 hc        1 AOM      0.043700
     27 H122        1.6510   -2.2660   -4.0960 hc        1 AOM      0.043700
     28 H14C        3.4720   -3.2440   -1.0700 hc        1 AOM      0.044700
     29 H151        5.8140   -3.2590   -0.6980 hc        1 AOM      0.044700
     30 H152        6.1170   -1.8510   -1.7870 hc        1 AOM      0.044700
     31 H161        6.4000   -3.3800   -3.5240 hc        1 AOM      0.047200
     32 H162        5.7710   -4.7440   -2.5150 hc        1 AOM      0.047200
     33 H17C        3.5870   -4.5130   -3.3450 h1        1 AOM      0.033700
     34 H181        3.6880   -0.1740   -3.4000 hc        1 AOM      0.040367
     35 H182        5.1940   -1.1170   -3.7690 hc        1 AOM      0.040367
     36 H183        3.7680   -1.2180   -4.8810 hc        1 AOM      0.040367
     37 H191        1.6480    2.3350   -0.1100 hc        1 AOM      0.037367
     38 H192        1.3960    1.5510   -1.7170 hc        1 AOM      0.037367
     39 H193        3.0240    1.4950   -0.9260 hc        1 AOM      0.037367
     40 HC21       -1.6960    0.9870    1.0400 hc        1 AOM      0.045700
     41 HC22       -0.4200    2.1630    0.5370 hc        1 AOM      0.045700
     42 HC3        -0.2830    0.1140    2.8600 h1        1 AOM      0.030700
     43 HC41        1.9640    1.0220    3.3270 hc        1 AOM      0.055700
     44 HC42        1.8610    2.1670    1.9380 hc        1 AOM      0.055700
     45 HC5         1.7400   -0.9270    1.8020 hc        1 AOM      0.044700
     46 HC61        3.9740   -0.0140    2.4490 hc        1 AOM      0.042700
     47 HC62        3.9990    1.0120    0.9620 hc        1 AOM      0.042700
     48 HC71        5.2530   -1.0920    0.5640 hc        1 AOM      0.039700
     49 HC72        3.8410   -2.0800    1.1110 hc        1 AOM      0.039700
     50 HC8         3.9970   -0.2210   -1.3540 hc        1 AOM      0.058700
     51 HC9         1.6900   -1.9850   -0.2630 hc        1 AOM      0.042700
     52 HO3        -1.3630    2.1730    3.1320 ho        1 AOM      0.398000
     53 HO17        4.8750   -4.3000   -5.2590 ho        1 AOM      0.398000
@<TRIPOS>BOND
     1    1    2 1
     2    1   12 1
     3    1   22 1
     4    1   23 1
     5    2   11 1
     6    2   15 1
     7    2   19 1
     8    3    4 1
     9    3   19 1
    10    3   24 1
    11    3   25 1
    12    4    5 1
    13    4   26 1
    14    4   27 1
    15    5    6 1
    16    5    9 1
    17    5   10 1
    18    6    7 1
    19    6   18 1
    20    6   28 1
    21    7    8 1
    22    7   29 1
    23    7   30 1
    24    8    9 1
    25    8   31 1
    26    8   32 1
    27    9   21 1
    28    9   33 1
    29   10   34 1
    30   10   35 1
    31   10   36 1
    32   11   37 1
    33   11   38 1
    34   11   39 1
    35   12   13 1
    36   12   40 1
    37   12   41 1
    38   13   14 1
    39   13   20 1
    40   13   42 1
    41   14   15 1
    42   14   43 1
    43   14   44 1
    44   15   16 1
    45   15   45 1
    46   16   17 1
    47   16   46 1
    48   16   47 1
    49   17   18 1
    50   17   48 1
    51   17   49 1
    52   18   19 1
    53   18   50 1
    54   19   51 1
    55   20   52 1
    56   21   53 1
@<TRIPOS>SUBSTRUCTURE
     1 AOM         1 TEMP              0 ****  ****    0 ROOT
