@<TRIPOS>MOLECULE
molecule
   53    56     1     0     0
SMALL
bcc


@<TRIPOS>ATOM
      1 C1           0.0000     0.0000     0.0000 c3         1 AON      -0.073400
      2 C10          1.5450     0.0000     0.0000 c3         1 AON      -0.055000
      3 C11          1.4540    -1.2710    -2.1530 c3         1 AON      -0.085400
      4 C12          1.9940    -2.4650    -2.9570 c3         1 AON      -0.054400
      5 C13          3.5060    -2.3540    -2.9710 c3         1 AON      -0.066000
      6 C14          3.9970    -2.5050    -1.5070 c3         1 AON      -0.062700
      7 C15          5.5060    -2.6940    -1.6930 c3         1 AON      -0.074400
      8 C16          5.5870    -3.6500    -2.9150 c3         1 AON      -0.109400
      9 C17          4.2630    -3.4520    -3.7100 c3         1 AON       0.153100
     10 C18          3.9180    -0.9850    -3.5160 c3         1 AON      -0.092100
     11 C19          2.0550     1.2520    -0.7190 c3         1 AON      -0.092100
     12 C2          -0.5060     1.2450     0.7320 c3         1 AON      -0.091400
     13 C3           0.0200     1.2410     2.1680 c3         1 AON       0.148100
     14 C4           1.5490     1.2450     2.1520 c3         1 AON      -0.090400
     15 C5           2.0540     0.0000     1.4210 c3         1 AON      -0.055700
     16 C6           3.5840     0.0010     1.4060 c3         1 AON      -0.076400
     17 C7           4.0890    -1.2440     0.6750 c3         1 AON      -0.074400
     18 C8           3.5670    -1.2370    -0.7630 c3         1 AON      -0.064700
     19 C9           2.0320    -1.2440    -0.7430 c3         1 AON      -0.052700
     20 O3          -0.4530     2.4030     2.8520 oh         1 AON      -0.607800
     21 O17          3.4950    -4.6570    -3.7020 oh         1 AON      -0.602800
     22 HC11        -0.3600     0.0110    -1.0220 hc         1 AON       0.045200
     23 HC12        -0.3600    -0.8870     0.5060 hc         1 AON       0.045200
     24 H111         1.7210    -0.3520    -2.6610 hc         1 AON       0.044700
     25 H112         0.3750    -1.3470    -2.0900 hc         1 AON       0.044700
     26 H121         1.6140    -2.4270    -3.9710 hc         1 AON       0.050700
     27 H122         1.6990    -3.3920    -2.4810 hc         1 AON       0.050700
     28 H14C         3.5570    -3.3830    -1.0500 hc         1 AON       0.068700
     29 H151         5.9430    -3.1570    -0.8170 hc         1 AON       0.045200
     30 H152         5.9840    -1.7480    -1.9160 hc         1 AON       0.045200
     31 H161         6.4350    -3.3880    -3.5360 hc         1 AON       0.049200
     32 H162         5.6680    -4.6770    -2.5790 hc         1 AON       0.049200
     33 H17C         4.4780    -3.1420    -4.7250 h1         1 AON       0.034700
     34 H181         4.3660    -1.1060    -4.4950 hc         1 AON       0.039367
     35 H182         3.0450    -0.3490    -3.5940 hc         1 AON       0.039367
     36 H183         4.6360    -0.5310    -2.8440 hc         1 AON       0.039367
     37 H191         1.5520     1.3500    -1.6730 hc         1 AON       0.039033
     38 H192         1.8500     2.1250    -0.1120 hc         1 AON       0.039033
     39 H193         3.1230     1.1660    -0.8800 hc         1 AON       0.039033
     40 HC21        -1.5890     1.2390     0.7450 hc         1 AON       0.051200
     41 HC22        -0.1510     2.1320     0.2210 hc         1 AON       0.051200
     42 HC3         -0.3310     0.3510     2.6760 h1         1 AON       0.028700
     43 HC41         1.9010     2.1310     1.6380 hc         1 AON       0.052700
     44 HC42         1.9200     1.2400     3.1690 hc         1 AON       0.052700
     45 HC5          1.6980    -0.8870     1.9310 hc         1 AON       0.049700
     46 HC61         3.9530    -0.0050     2.4240 hc         1 AON       0.043200
     47 HC62         3.9380     0.8870     0.8940 hc         1 AON       0.043200
     48 HC71         3.7300    -2.1300     1.1840 hc         1 AON       0.041700
     49 HC72         5.1720    -1.2400     0.6650 hc         1 AON       0.041700
     50 HC8          3.9270    -0.3590    -1.2850 hc         1 AON       0.063700
     51 HC9          1.6930    -2.1250    -0.2100 hc         1 AON       0.051700
     52 HO3         -0.9360     2.1420     3.6190 ho         1 AON       0.399000
     53 HO17         3.7030    -5.1670    -4.4670 ho         1 AON       0.398000
@<TRIPOS>BOND
     1     1     2 1
     2     1    12 1
     3     1    22 1
     4     1    23 1
     5     2    11 1
     6     2    15 1
     7     2    19 1
     8     3     4 1
     9     3    19 1
    10     3    24 1
    11     3    25 1
    12     4     5 1
    13     4    26 1
    14     4    27 1
    15     5     6 1
    16     5     9 1
    17     5    10 1
    18     6     7 1
    19     6    18 1
    20     6    28 1
    21     7     8 1
    22     7    29 1
    23     7    30 1
    24     8     9 1
    25     8    31 1
    26     8    32 1
    27     9    21 1
    28     9    33 1
    29    10    34 1
    30    10    35 1
    31    10    36 1
    32    11    37 1
    33    11    38 1
    34    11    39 1
    35    12    13 1
    36    12    40 1
    37    12    41 1
    38    13    14 1
    39    13    20 1
    40    13    42 1
    41    14    15 1
    42    14    43 1
    43    14    44 1
    44    15    16 1
    45    15    45 1
    46    16    17 1
    47    16    46 1
    48    16    47 1
    49    17    18 1
    50    17    48 1
    51    17    49 1
    52    18    19 1
    53    18    50 1
    54    19    51 1
    55    20    52 1
    56    21    53 1
@<TRIPOS>SUBSTRUCTURE
     1 AON         1 TEMP              0 ****  ****    0 ROOT
