@<TRIPOS>MOLECULE
AON
   53    56     1     0     0
SMALL
bcc


@<TRIPOS>ATOM
      1 C1          0.0060    0.0940    0.0490 c3        1 AON     -0.068400
      2 C10         1.5360    0.1570   -0.0490 c3        1 AON     -0.036000
      3 C11         1.4820   -1.1480   -2.2450 c3        1 AON     -0.074400
      4 C12         2.0110   -2.3210   -3.0560 c3        1 AON     -0.059400
      5 C13         3.5290   -2.3340   -3.0570 c3        1 AON     -0.043000
      6 C14         3.9970   -2.3780   -1.5850 c3        1 AON     -0.065700
      7 C15         5.4680   -2.7600   -1.6690 c3        1 AON     -0.069400
      8 C16         5.5430   -3.7230   -2.8570 c3        1 AON     -0.114400
      9 C17         4.2150   -3.5960   -3.6390 c3        1 AON      0.141100
     10 C18         4.0690   -1.1430   -3.8350 c3        1 AON     -0.088100
     11 C19         1.9350    1.4570   -0.7290 c3        1 AON     -0.086100
     12 C2         -0.5710    1.1390    0.9790 c3        1 AON     -0.112400
     13 C3          0.0490    1.0630    2.3700 c3        1 AON      0.142100
     14 C4          1.5710    1.1350    2.3010 c3        1 AON     -0.071400
     15 C5          2.1020    0.0500    1.3820 c3        1 AON     -0.055700
     16 C6          3.6210    0.0350    1.3840 c3        1 AON     -0.072400
     17 C7          4.1370   -1.1410    0.5820 c3        1 AON     -0.073400
     18 C8          3.5890   -1.1270   -0.8350 c3        1 AON     -0.047700
     19 C9          2.0510   -1.0690   -0.8330 c3        1 AON     -0.049700
     20 O3         -0.3710    2.1570    3.1770 oh        1 AON     -0.601800
     21 O17         3.3670   -4.7140   -3.4280 oh        1 AON     -0.595800
     22 HC11       -0.4370    0.2420   -0.9710 hc        1 AON      0.042700
     23 HC12       -0.2940   -0.9270    0.4050 hc        1 AON      0.042700
     24 H111        0.3660   -1.2480   -2.1810 hc        1 AON      0.039200
     25 H112        1.7000   -0.1940   -2.7920 hc        1 AON      0.039200
     26 H121        1.6350   -3.2860   -2.6260 hc        1 AON      0.051200
     27 H122        1.6290   -2.2480   -4.1070 hc        1 AON      0.051200
     28 H14C        3.4640   -3.2510   -1.1010 hc        1 AON      0.060700
     29 H151        5.8140   -3.2480   -0.7260 hc        1 AON      0.043200
     30 H152        6.1080   -1.8600   -1.8430 hc        1 AON      0.043200
     31 H161        5.6790   -4.7740   -2.5020 hc        1 AON      0.045700
     32 H162        6.4030   -3.4650   -3.5200 hc        1 AON      0.045700
     33 H17C        4.4060   -3.4860   -4.7410 h1        1 AON      0.036700
     34 H181        3.7340   -1.2050   -4.8990 hc        1 AON      0.036700
     35 H182        3.7010   -0.1790   -3.4100 hc        1 AON      0.036700
     36 H183        5.1860   -1.1350   -3.8120 hc        1 AON      0.036700
     37 H191        1.6640    2.3350   -0.0930 hc        1 AON      0.036367
     38 H192        1.4030    1.5620   -1.7050 hc        1 AON      0.036367
     39 H193        3.0340    1.4950   -0.9200 hc        1 AON      0.036367
     40 HC21       -0.4020    2.1650    0.5600 hc        1 AON      0.045700
     41 HC22       -1.6800    0.9900    1.0600 hc        1 AON      0.045700
     42 HC3        -0.2630    0.1000    2.8680 h1        1 AON      0.030700
     43 HC41        1.8850    2.1510    1.9520 hc        1 AON      0.055700
     44 HC42        1.9890    0.9960    3.3330 hc        1 AON      0.055700
     45 HC5         1.7510   -0.9420    1.7950 hc        1 AON      0.045700
     46 HC61        4.0140    0.9950    0.9600 hc        1 AON      0.042200
     47 HC62        3.9910   -0.0420    2.4400 hc        1 AON      0.042200
     48 HC71        5.2580   -1.1120    0.5430 hc        1 AON      0.040200
     49 HC72        3.8440   -2.0990    1.0880 hc        1 AON      0.040200
     50 HC8         4.0000   -0.2240   -1.3640 hc        1 AON      0.053700
     51 HC9         1.6880   -1.9850   -0.2790 hc        1 AON      0.046700
     52 HO3        -1.3350    2.1600    3.1600 ho        1 AON      0.397000
     53 HO17        3.8620   -5.4920   -3.7120 ho        1 AON      0.397000
@<TRIPOS>BOND
     1    1    2 1   
     2    1   12 1   
     3    1   22 1   
     4    1   23 1   
     5    2   11 1   
     6    2   15 1   
     7    2   19 1   
     8    3    4 1   
     9    3   19 1   
    10    3   24 1   
    11    3   25 1   
    12    4    5 1   
    13    4   26 1   
    14    4   27 1   
    15    5    6 1   
    16    5    9 1   
    17    5   10 1   
    18    6    7 1   
    19    6   18 1   
    20    6   28 1   
    21    7    8 1   
    22    7   29 1   
    23    7   30 1   
    24    8    9 1   
    25    8   31 1   
    26    8   32 1   
    27    9   21 1   
    28    9   33 1   
    29   10   34 1   
    30   10   35 1   
    31   10   36 1   
    32   11   37 1   
    33   11   38 1   
    34   11   39 1   
    35   12   13 1   
    36   12   40 1   
    37   12   41 1   
    38   13   14 1   
    39   13   20 1   
    40   13   42 1   
    41   14   15 1   
    42   14   43 1   
    43   14   44 1   
    44   15   16 1   
    45   15   45 1   
    46   16   17 1   
    47   16   46 1   
    48   16   47 1   
    49   17   18 1   
    50   17   48 1   
    51   17   49 1   
    52   18   19 1   
    53   18   50 1   
    54   19   51 1   
    55   20   52 1   
    56   21   53 1   
@<TRIPOS>SUBSTRUCTURE
     1 AON         1 TEMP              0 ****  ****    0 ROOT
