@<TRIPOS>MOLECULE
molecule
   32    32     1     0     0
SMALL
bcc


@<TRIPOS>ATOM
      1 N1           0.0000     0.0000     0.0000 nb         1 AOO      -0.954000
      2 C2           1.3280     0.0000     0.0000 ca         1 AOO       0.992300
      3 N3           1.9930     0.0000     1.1490 nb         1 AOO      -0.893000
      4 C4           1.3290     0.0020     2.3010 ca         1 AOO       1.021900
      5 N5           0.0010     0.0020     2.3020 nb         1 AOO      -0.931000
      6 C6          -0.6640     0.0010     1.1510 ca         1 AOO       1.022900
      7 N7           2.0210     0.0020     3.4950 nu         1 AOO      -0.884900
      8 C8           3.4860     0.0010     3.4940 c3         1 AOO       0.242500
      9 C9           3.9960     1.4370     3.3670 c3         1 AOO      -0.109100
     10 C10          3.9970    -0.6090     4.8010 c3         1 AOO      -0.109100
     11 N11         -2.0440     0.0010     1.1520 nu         1 AOO      -0.893900
     12 C12         -2.7780    -0.0020    -0.1170 c3         1 AOO       0.243800
     13 C13         -4.2810    -0.0010     0.1630 c3         1 AOO      -0.114100
     14 O21          2.0040    -0.0010    -1.1720 os         1 AOO      -0.412100
     15 C22          1.2250    -0.0030    -2.3700 c3         1 AOO       0.142700
     16 HN7          1.5220     0.0110     4.3620 hn         1 AOO       0.457800
     17 H8           3.8460    -0.5860     2.6570 h1         1 AOO       0.084700
     18 H9           3.4840     2.0670     4.0840 hc         1 AOO       0.042867
     19 H9A          5.0610     1.4610     3.5610 hc         1 AOO       0.042867
     20 H9B          3.8040     1.8020     2.3650 hc         1 AOO       0.042867
     21 H10          3.6130    -1.6160     4.9040 hc         1 AOO       0.042867
     22 H10A         3.6590    -0.0070     5.6360 hc         1 AOO       0.042867
     23 H10B         5.0790    -0.6340     4.7900 hc         1 AOO       0.042867
     24 HN11        -2.5440     0.0030     2.0180 hn         1 AOO       0.458800
     25 H12         -2.5160     0.8820    -0.6870 h1         1 AOO       0.050700
     26 H12A        -2.5160    -0.8870    -0.6830 h1         1 AOO       0.050700
     27 H13         -4.8230    -0.0030    -0.7750 hc         1 AOO       0.044033
     28 H13A        -4.5430     0.8850     0.7290 hc         1 AOO       0.044033
     29 H13B        -4.5430    -0.8840     0.7330 hc         1 AOO       0.044033
     30 H22          0.6000     0.8810    -2.3960 h1         1 AOO       0.048367
     31 H22A         0.6000    -0.8880    -2.3930 h1         1 AOO       0.048367
     32 H22B         1.8840    -0.0040    -3.2300 h1         1 AOO       0.048367
@<TRIPOS>BOND
     1     2     1 ar
     2     1     6 ar
     3    14     2 1
     4     2     3 ar
     5     3     4 ar
     6     4     7 1
     7     4     5 ar
     8     6     5 ar
     9     6    11 1
    10     7     8 1
    11     7    16 1
    12    10     8 1
    13     8     9 1
    14     8    17 1
    15     9    18 1
    16     9    19 1
    17     9    20 1
    18    10    21 1
    19    10    22 1
    20    10    23 1
    21    11    12 1
    22    11    24 1
    23    13    12 1
    24    12    25 1
    25    12    26 1
    26    13    27 1
    27    13    28 1
    28    13    29 1
    29    15    14 1
    30    15    30 1
    31    15    31 1
    32    15    32 1
@<TRIPOS>SUBSTRUCTURE
     1 AOO         1 TEMP              0 ****  ****    0 ROOT
