@<TRIPOS>MOLECULE
AOP
   25    24     1     0     0
SMALL
bcc


@<TRIPOS>ATOM
      1 O1           0.0000     0.0000     0.0000 o          1 AOP      -0.547100
      2 C1           1.2070     0.0000     0.0000 c          1 AOP       0.656900
      3 C2           1.9620     0.0000     1.3030 c3         1 AOP       0.009800
      4 N3           2.8060    -1.1990     1.3830 n7         1 AOP      -0.362700
      5 O4           3.5060    -1.1370     2.6640 os         1 AOP      -0.279100
      6 C5           4.3290    -2.3020     2.7420 c3         1 AOP       0.208400
      7 C6           5.0940    -2.3000     4.0660 c3         1 AOP      -0.037400
      8 C7           5.9750    -3.5470     4.1490 c3         1 AOP      -0.024400
      9 C8           6.7400    -3.5450     5.4750 c3         1 AOP      -0.027400
     10 C9           7.6210    -4.7920     5.5580 c3         1 AOP       0.006900
     11 H1           1.7480     0.0120    -0.9380 h4         1 AOP      -0.031800
     12 H21          2.5850     0.8840     1.3590 h1         1 AOP       0.038200
     13 H22          1.2590     0.0010     2.1280 h1         1 AOP       0.038200
     14 HN3          2.2280    -2.0160     1.3570 hn         1 AOP       0.248800
     15 H51          3.7080    -3.1880     2.6860 h1         1 AOP      -0.002300
     16 H52          5.0330    -2.3030     1.9180 h1         1 AOP      -0.002300
     17 H61          5.7160    -1.4140     4.1220 hc         1 AOP       0.023200
     18 H62          4.3900    -2.2990     4.8890 hc         1 AOP       0.023200
     19 H71          6.6790    -3.5470     3.3260 hc         1 AOP       0.014700
     20 H72          5.3530    -4.4320     4.0930 hc         1 AOP       0.014700
     21 H81          6.0360    -3.5440     6.2980 hc         1 AOP       0.013700
     22 H82          7.3620    -2.6590     5.5310 hc         1 AOP       0.013700
     23 H91          8.1620    -4.7900     6.4970 hc         1 AOP       0.000700
     24 H92          6.9990    -5.6770     5.5020 hc         1 AOP       0.000700
     25 H93          8.3250    -4.7920     4.7350 hc         1 AOP       0.000700
@<TRIPOS>BOND
     1     1     2 2   
     2     2     3 1   
     3     2    11 1   
     4     3     4 1   
     5     3    12 1   
     6     3    13 1   
     7     4     5 1   
     8     4    14 1   
     9     5     6 1   
    10     6     7 1   
    11     6    15 1   
    12     6    16 1   
    13     7     8 1   
    14     7    17 1   
    15     7    18 1   
    16     8     9 1   
    17     8    19 1   
    18     8    20 1   
    19     9    10 1   
    20     9    21 1   
    21     9    22 1   
    22    10    23 1   
    23    10    24 1   
    24    10    25 1   
@<TRIPOS>SUBSTRUCTURE
     1 AOP         1 TEMP              0 ****  ****    0 ROOT
