@<TRIPOS>MOLECULE
molecule
   45    48     1     0     0
SMALL
bcc


@<TRIPOS>ATOM
      1 O1           0.0000     0.0000     0.0000 o          1 AOQ      -0.511100
      2 O2           5.2890     0.0010     0.0580 o          1 AOQ      -0.507100
      3 C1           1.2170     0.0000     0.0000 c          1 AOQ       0.585900
      4 C2           1.9500     0.0000     1.2690 cc         1 AOQ      -0.174400
      5 C3           3.2980     0.0000     1.2900 cd         1 AOQ       0.043900
      6 C4           4.0750    -0.0000     0.0280 c          1 AOQ       0.551900
      7 C5           4.0660    -0.0020    -2.4670 ca         1 AOQ      -0.075000
      8 C6           3.3760    -0.0090    -3.6690 ca         1 AOQ      -0.117000
      9 C7           1.9950    -0.0150    -3.6820 ca         1 AOQ      -0.112000
     10 C8           1.2790    -0.0130    -2.4940 ca         1 AOQ      -0.080000
     11 C9           1.9570    -0.0080    -1.2820 ca         1 AOQ      -0.133600
     12 C10          3.3630    -0.0010    -1.2680 ca         1 AOQ      -0.138600
     13 O6           3.9490     0.0010     2.4770 oh         1 AOQ      -0.482100
     14 C11          0.3060     1.2500     2.6430 c3         1 AOQ      -0.079400
     15 C12         -0.4690     1.2510     3.9620 c3         1 AOQ      -0.069900
     16 C13         -1.3500     0.0030     4.0360 c3         1 AOQ      -0.026400
     17 C14         -0.4700    -1.2470     3.9630 c3         1 AOQ      -0.069900
     18 C15          0.3060    -1.2480     2.6440 c3         1 AOQ      -0.079400
     19 C16          1.1860     0.0010     2.5690 c3         1 AOQ      -0.015500
     20 Cl          -4.3930     0.0050     9.2160 cl         1 AOQ      -0.114400
     21 C17         -2.1130     0.0030     5.3360 ca         1 AOQ      -0.075300
     22 C18         -1.4300     0.0090     6.5380 ca         1 AOQ      -0.117500
     23 C19         -2.1300     0.0100     7.7300 ca         1 AOQ      -0.120000
     24 C20         -3.5130     0.0040     7.7190 ca         1 AOQ       0.024400
     25 C21         -4.1960    -0.0020     6.5160 ca         1 AOQ      -0.120000
     26 C22         -3.4960     0.0030     5.3250 ca         1 AOQ      -0.117500
     27 H1           5.1490     0.0030    -2.4630 ha         1 AOQ       0.157000
     28 H2           3.9230    -0.0100    -4.6040 ha         1 AOQ       0.141000
     29 H3           1.4660    -0.0200    -4.6280 ha         1 AOQ       0.141000
     30 H4           0.1960    -0.0180    -2.5120 ha         1 AOQ       0.158000
     31 H5           4.6400    -0.6400     2.4570 ho         1 AOQ       0.436000
     32 H6          -0.3930     1.2480     1.8150 hc         1 AOQ       0.053700
     33 H7           0.9310     2.1340     2.5920 hc         1 AOQ       0.053700
     34 H8           0.2300     1.2480     4.7900 hc         1 AOQ       0.045700
     35 H9          -1.0930     2.1350     4.0120 hc         1 AOQ       0.045700
     36 H10         -2.0440     0.0030     3.2040 hc         1 AOQ       0.063700
     37 H11          0.2290    -1.2450     4.7910 hc         1 AOQ       0.045700
     38 H12         -1.0950    -2.1310     4.0130 hc         1 AOQ       0.045700
     39 H13          0.9300    -2.1320     2.5940 hc         1 AOQ       0.053700
     40 H14         -0.3930    -1.2460     1.8160 hc         1 AOQ       0.053700
     41 H15          1.8800     0.0010     3.4010 hc         1 AOQ       0.074700
     42 H16         -0.3470     0.0130     6.5460 ha         1 AOQ       0.138000
     43 H17         -1.5960     0.0140     8.6720 ha         1 AOQ       0.143000
     44 H18         -5.2790    -0.0020     6.5070 ha         1 AOQ       0.143000
     45 H19         -4.0300    -0.0020     4.3830 ha         1 AOQ       0.138000
@<TRIPOS>BOND
     1     9    10 ar
     2     9     8 ar
     3    10    11 ar
     4     1     3 2
     5     8     7 ar
     6    11     3 1
     7    11    12 ar
     8     3     4 1
     9    14    15 1
    10    14    19 1
    11    15    16 1
    12     7    12 ar
    13    22    23 ar
    14    22    21 ar
    15    16    21 1
    16    16    17 1
    17    12     6 1
    18    23    24 ar
    19    21    26 ar
    20    24    25 ar
    21    24    20 1
    22     4    19 1
    23     4     5 2
    24    26    25 ar
    25    19    18 1
    26    18    17 1
    27     6     5 1
    28     6     2 2
    29     5    13 1
    30     7    27 1
    31     8    28 1
    32     9    29 1
    33    10    30 1
    34    13    31 1
    35    14    32 1
    36    14    33 1
    37    15    34 1
    38    15    35 1
    39    16    36 1
    40    17    37 1
    41    17    38 1
    42    18    39 1
    43    18    40 1
    44    19    41 1
    45    22    42 1
    46    23    43 1
    47    25    44 1
    48    26    45 1
@<TRIPOS>SUBSTRUCTURE
     1 AOQ         1 TEMP              0 ****  ****    0 ROOT
