@<TRIPOS>MOLECULE
AOQ
   45    48     1     0     0
SMALL
bcc


@<TRIPOS>ATOM
      1 O1         -0.0630    0.0020   -0.1170 o         1 AOQ     -0.518100
      2 O2          5.3340   -0.0760    0.1170 o         1 AOQ     -0.524100
      3 C1          1.1740   -0.0140   -0.0520 c         1 AOQ      0.583900
      4 C2          1.9020   -0.0320    1.2340 cc        1 AOQ     -0.176400
      5 C3          3.2600   -0.0510    1.2430 cd        1 AOQ      0.046900
      6 C4          4.0990   -0.0570    0.0150 c         1 AOQ      0.556900
      7 C5          4.1130   -0.0380   -2.4630 ca        1 AOQ     -0.077000
      8 C6          3.4460   -0.0190   -3.6890 ca        1 AOQ     -0.121000
      9 C7          2.0540    0.0010   -3.7230 ca        1 AOQ     -0.107000
     10 C8          1.3230    0.0030   -2.5320 ca        1 AOQ     -0.088000
     11 C9          1.9810   -0.0160   -1.2990 ca        1 AOQ     -0.125600
     12 C10         3.3860   -0.0370   -1.2680 ca        1 AOQ     -0.139600
     13 O6          3.9240   -0.0680    2.4440 oh        1 AOQ     -0.484100
     14 C11         0.2800    1.2360    2.6470 c3        1 AOQ     -0.076400
     15 C12        -0.4760    1.2400    3.9590 c3        1 AOQ     -0.068400
     16 C13        -1.3550   -0.0010    4.0880 c3        1 AOQ     -0.024400
     17 C14        -0.5110   -1.2630    3.9470 c3        1 AOQ     -0.068400
     18 C15         0.2450   -1.2680    2.6350 c3        1 AOQ     -0.076400
     19 C16         1.1240   -0.0270    2.5140 c3        1 AOQ     -0.012500
     20 CL         -4.3930    0.0170    9.2550 cl        1 AOQ     -0.099400
     21 C17        -2.1030    0.0040    5.3830 ca        1 AOQ     -0.070300
     22 C18        -1.4260   -0.0110    6.6080 ca        1 AOQ     -0.119500
     23 C19        -2.1300   -0.0070    7.8110 ca        1 AOQ     -0.123500
     24 C20        -3.5270    0.0120    7.7910 ca        1 AOQ      0.013400
     25 C21        -4.2180    0.0260    6.5760 ca        1 AOQ     -0.123500
     26 C22        -3.5030    0.0220    5.3800 ca        1 AOQ     -0.119500
     27 H1          5.2150   -0.0540   -2.4230 ha        1 AOQ      0.160000
     28 H2          4.0230   -0.0210   -4.6260 ha        1 AOQ      0.145000
     29 H3          1.5240    0.0160   -4.6880 ha        1 AOQ      0.144000
     30 H4          0.2200    0.0180   -2.5520 ha        1 AOQ      0.164000
     31 H5          4.8820   -0.0820    2.2630 ho        1 AOQ      0.445000
     32 H6         -0.4450    1.2940    1.7920 hc        1 AOQ      0.052700
     33 H7          0.9440    2.1370    2.5970 hc        1 AOQ      0.052700
     34 H8          0.2480    1.2770    4.8150 hc        1 AOQ      0.044200
     35 H9         -1.1170    2.1580    4.0170 hc        1 AOQ      0.044200
     36 H10        -2.0970    0.0140    3.2370 hc        1 AOQ      0.059700
     37 H11         0.2120   -1.3290    4.8020 hc        1 AOQ      0.044200
     38 H12        -1.1760   -2.1640    3.9960 hc        1 AOQ      0.044200
     39 H13        -0.4810   -1.2970    1.7790 hc        1 AOQ      0.052700
     40 H14         0.8840   -2.1860    2.5760 hc        1 AOQ      0.052700
     41 H15         1.8560   -0.0420    3.3750 hc        1 AOQ      0.071700
     42 H16        -0.3250   -0.0260    6.6250 ha        1 AOQ      0.138000
     43 H17        -1.5870   -0.0190    8.7680 ha        1 AOQ      0.145500
     44 H18        -5.3180    0.0410    6.5610 ha        1 AOQ      0.145500
     45 H19        -4.0500    0.0340    4.4240 ha        1 AOQ      0.138000
@<TRIPOS>BOND
     1    1    3 2   
     2    2    6 2   
     3    3    4 1   
     4    3   11 1   
     5    4    5 2   
     6    4   19 1   
     7    5    6 1   
     8    5   13 1   
     9    6   12 1   
    10    7    8 ar  
    11    7   12 ar  
    12    7   27 1   
    13    8    9 ar  
    14    8   28 1   
    15    9   10 ar  
    16    9   29 1   
    17   10   11 ar  
    18   10   30 1   
    19   11   12 ar  
    20   13   31 1   
    21   14   15 1   
    22   14   19 1   
    23   14   32 1   
    24   14   33 1   
    25   15   16 1   
    26   15   34 1   
    27   15   35 1   
    28   16   17 1   
    29   16   21 1   
    30   16   36 1   
    31   17   18 1   
    32   17   37 1   
    33   17   38 1   
    34   18   19 1   
    35   18   39 1   
    36   18   40 1   
    37   19   41 1   
    38   20   24 1   
    39   21   22 ar  
    40   21   26 ar  
    41   22   23 ar  
    42   22   42 1   
    43   23   24 ar  
    44   23   43 1   
    45   24   25 ar  
    46   25   26 ar  
    47   25   44 1   
    48   26   45 1   
@<TRIPOS>SUBSTRUCTURE
     1 AOQ         1 TEMP              0 ****  ****    0 ROOT
