@<TRIPOS>MOLECULE
AOR
   26    25     1     0     0
SMALL
bcc


@<TRIPOS>ATOM
      1 CA           1.5070     0.0000     0.0000 c3         1 AOR      -0.098300
      2 C            0.0000     0.0000     0.0000 c          1 AOR       0.967600
      3 O           -0.6720    -1.0070     0.5810 o          1 AOR      -0.864800
      4 OXT         -0.6040     0.9070    -0.5230 o          1 AOR      -0.864800
      5 CB           2.0160     0.0000     1.4430 c3         1 AOR      -0.010400
      6 CG           3.5420    -0.1260     1.4440 c3         1 AOR      -0.049400
      7 CD           4.0510    -0.1260     2.8870 c3         1 AOR      -0.057200
      8 NE           5.5150    -0.2460     2.8890 nz         1 AOR       0.077400
      9 N1           1.9950     1.1960    -0.6900 ns         1 AOR      -0.174900
     10 C1           2.1230     1.1950    -2.0310 c          1 AOR       0.571100
     11 O1           1.8350     0.2040    -2.6670 o          1 AOR      -0.637100
     12 C2           2.6260     2.4260    -2.7420 c3         1 AOR      -0.069100
     13 HA           1.8680    -0.8850    -0.5110 h1         1 AOR       0.058700
     14 HB1          1.7290     0.9260     1.9270 hc         1 AOR       0.040200
     15 HB2          1.5840    -0.8370     1.9780 hc         1 AOR       0.040200
     16 HG1          3.9740     0.7110     0.9090 hc         1 AOR       0.029200
     17 HG2          3.8280    -1.0510     0.9600 hc         1 AOR       0.029200
     18 HD1          3.7640     0.8000     3.3720 hx         1 AOR       0.084200
     19 HD2          3.6190    -0.9620     3.4230 hx         1 AOR       0.084200
     20 HNE1         5.7800    -1.1110     2.4600 hn         1 AOR       0.217133
     21 HNE2         5.8510    -0.2250     3.8320 hn         1 AOR       0.217133
     22 HN1          2.1980     2.0260    -0.1690 hn         1 AOR       0.148500
     23 H21          2.0690     3.2910    -2.4040 hc         1 AOR       0.014033
     24 H22          3.6780     2.5650    -2.5230 hc         1 AOR       0.014033
     25 H23          2.4930     2.3050    -3.8100 hc         1 AOR       0.014033
     26 HE3          5.9130     0.5120     2.3710 hn         1 AOR       0.217133
@<TRIPOS>BOND
     1     1     2 1   
     2     1     5 1   
     3     1     9 1   
     4     1    13 1   
     5     2     3 1   
     6     2     4 1   
     7     5     6 1   
     8     5    14 1   
     9     5    15 1   
    10     6     7 1   
    11     6    16 1   
    12     6    17 1   
    13     7     8 1   
    14     7    18 1   
    15     7    19 1   
    16     8    20 1   
    17     8    21 1   
    18     8    26 1   
    19     9    10 1   
    20     9    22 1   
    21    10    11 2   
    22    10    12 1   
    23    12    23 1   
    24    12    24 1   
    25    12    25 1   
@<TRIPOS>SUBSTRUCTURE
     1 AOR         1 TEMP              0 ****  ****    0 ROOT
