@<TRIPOS>MOLECULE
molecule
   18    18     1     0     0
SMALL
bcc


@<TRIPOS>ATOM
      1 C1           0.0000     0.0000     0.0000 ca         1 AOT       0.087600
      2 N1          -0.7000     0.0010    -1.2100 ns         1 AOT      -0.484100
      3 O1           0.8210    -1.2990    -2.1720 o          1 AOT      -0.607100
      4 C2           1.3890     0.0000     0.0000 ca         1 AOT      -0.160000
      5 O2          -1.8940     0.1130    -3.7130 o          1 AOT      -0.807300
      6 O3          -0.3760    -1.1840    -4.6740 o          1 AOT      -0.807300
      7 C8          -0.8800    -0.5430    -3.6030 c          1 AOT       0.831600
      8 C7          -0.1930    -0.6410    -2.2810 c          1 AOT       0.558100
      9 C4           2.0770     0.0000     1.1980 ca         1 AOT      -0.119500
     10 C6           1.3850    -0.0000     2.3950 ca         1 AOT      -0.178000
     11 C5           0.0030     0.0010     2.3980 ca         1 AOT      -0.119500
     12 C3          -0.6930     0.0060     1.2040 ca         1 AOT      -0.160000
     13 H1          -1.5610     0.5040    -1.2900 hn         1 AOT       0.337500
     14 H2           1.9320     0.0000    -0.9380 ha         1 AOT       0.146000
     15 H4           3.1600    -0.0000     1.1990 ha         1 AOT       0.114000
     16 H5           1.9270    -0.0030     3.3330 ha         1 AOT       0.109000
     17 H6          -0.5360     0.0030     3.3380 ha         1 AOT       0.114000
     18 H7          -1.7760     0.0070     1.2070 ha         1 AOT       0.146000
@<TRIPOS>BOND
     1     5     7 1
     2     6     7 1
     3     7     8 1
     4     8     3 2
     5     8     2 1
     6     2     1 1
     7    12     1 ar
     8    12    11 ar
     9     1     4 ar
    10    11    10 ar
    11     4     9 ar
    12    10     9 ar
    13     2    13 1
    14     4    14 1
    15     9    15 1
    16    10    16 1
    17    11    17 1
    18    12    18 1
@<TRIPOS>SUBSTRUCTURE
     1 AOT         1 TEMP              0 ****  ****    0 ROOT
