@<TRIPOS>MOLECULE
molecule
   55    58     1     0     0
SMALL
bcc


@<TRIPOS>ATOM
      1 Cl           0.0000     0.0000     0.0000 cl         1 AOW      -0.087400
      2 C23          1.7360     0.0000     0.0000 ca         1 AOW       0.031400
      3 C8           2.4350     0.0000     1.2080 cp         1 AOW      -0.007000
      4 C7           1.6960    -0.0010     2.4950 cp         1 AOW      -0.060000
      5 C6           1.7900     1.0910     3.3560 ca         1 AOW      -0.106000
      6 C5           1.1010     1.0860     4.5510 ca         1 AOW      -0.135000
      7 C4           0.3190    -0.0020     4.8970 ca         1 AOW      -0.113000
      8 C3           0.2230    -1.0890     4.0460 ca         1 AOW      -0.126000
      9 C2           0.9020    -1.0920     2.8450 ca         1 AOW      -0.049300
     10 C1           0.7960    -2.2760     1.9200 c3         1 AOW      -0.051100
     11 C            1.9710    -3.2240     2.1680 c3         1 AOW      -0.088100
     12 C22          2.4290    -0.0050    -1.1950 ca         1 AOW      -0.099000
     13 C11          3.8120    -0.0060    -1.1950 ca         1 AOW      -0.095300
     14 C10          4.5090    -0.0010     0.0000 ca         1 AOW      -0.124000
     15 C9           3.8270     0.0000     1.2010 ca         1 AOW      -0.107000
     16 C12          4.5630    -0.0130    -2.5010 c3         1 AOW       0.210100
     17 N            4.8070     1.3700    -2.9330 n7         1 AOW      -0.816200
     18 C13          5.5380     1.4030    -4.2060 c3         1 AOW       0.160800
     19 C14          5.7730     2.8560    -4.6220 c3         1 AOW      -0.112700
     20 C15          6.5240     2.8900    -5.9290 cc         1 AOW       0.220800
     21 N2           6.1150     3.5490    -7.0470 na         1 AOW      -0.278200
     22 C21          7.0610     3.3400    -8.0170 cd         1 AOW      -0.047300
     23 C16          8.0490     2.5320    -7.4330 cd         1 AOW       0.213300
     24 N1           7.6600     2.2980    -6.1520 nd         1 AOW      -0.343000
     25 C20          7.2000     3.7540    -9.3600 cd         1 AOW      -0.087300
     26 N3           6.2650     4.5260    -9.9290 nh         1 AOW       0.349500
     27 O1           5.2900     4.8750    -9.2890 o          1 AOW      -0.156000
     28 O            6.3910     4.8800   -11.0890 oh         1 AOW      -0.366200
     29 C19          8.3290     3.3470   -10.0910 cd         1 AOW       0.009000
     30 C18          9.2890     2.5530    -9.5010 cc         1 AOW      -0.165000
     31 C17          9.1600     2.1440    -8.1870 cc         1 AOW       0.108000
     32 H1           2.4020     1.9430     3.0860 ha         1 AOW       0.131000
     33 H2           1.1730     1.9340     5.2210 ha         1 AOW       0.133000
     34 H3          -0.2180    -0.0030     5.8370 ha         1 AOW       0.134000
     35 H4          -0.3930    -1.9370     4.3210 ha         1 AOW       0.136000
     36 H5          -0.1350    -2.7980     2.1070 hc         1 AOW       0.055200
     37 H6           0.8180    -1.9340     0.8920 hc         1 AOW       0.055200
     38 H7           1.6070    -4.1370     2.6240 hc         1 AOW       0.036700
     39 H8           2.6840    -2.7490     2.8310 hc         1 AOW       0.036700
     40 H9           2.4520    -3.4570     1.2260 hc         1 AOW       0.036700
     41 H10          1.8880    -0.0090    -2.1340 ha         1 AOW       0.146000
     42 H11          5.5920    -0.0010    -0.0060 ha         1 AOW       0.130000
     43 H12          4.3750     0.0020     2.1360 ha         1 AOW       0.148000
     44 H13          5.5090    -0.5230    -2.3710 h1         1 AOW       0.044200
     45 H14          3.9750    -0.5270    -3.2520 h1         1 AOW       0.044200
     46 H15          5.3360     1.8500    -2.2320 hn         1 AOW       0.362800
     47 H17          4.9580     0.8980    -4.9690 h1         1 AOW       0.048700
     48 H18          6.4920     0.9030    -4.0880 h1         1 AOW       0.048700
     49 H19          4.8200     3.3560    -4.7400 hc         1 AOW       0.086200
     50 H20          6.3530     3.3610    -3.8590 hc         1 AOW       0.086200
     51 H21          5.3390     4.1780    -7.1080 hn         1 AOW       0.342700
     52 H23          8.4450     3.6590   -11.1220 ha         1 AOW       0.182000
     53 H24         10.1550     2.2450   -10.0740 ha         1 AOW       0.188000
     54 H25          9.9240     1.5200    -7.7390 ha         1 AOW       0.190000
     55 H16          5.6510     5.4080   -11.3390 ho         1 AOW       0.516000
@<TRIPOS>BOND
     1    11    10 1
     2    10     9 1
     3     1     2 1
     4     8     9 ar
     5     8     7 ar
     6     9     4 ar
     7     7     6 ar
     8     2    12 ar
     9     2     3 ar
    10     4     5 ar
    11     4     3 1
    12     6     5 ar
    13    12    13 ar
    14     3    15 ar
    15    13    16 1
    16    13    14 ar
    17    15    14 ar
    18    16    17 1
    19    17    18 1
    20    18    19 1
    21    19    20 1
    22    20    24 2
    23    20    21 1
    24    24    23 1
    25    21    22 2
    26    23    22 1
    27    23    31 2
    28    22    25 1
    29    31    30 1
    30    28    26 1
    31    25    26 2
    32    25    29 1
    33    26    27 1
    34    30    29 2
    35     5    32 1
    36     6    33 1
    37     7    34 1
    38     8    35 1
    39    10    36 1
    40    10    37 1
    41    11    38 1
    42    11    39 1
    43    11    40 1
    44    12    41 1
    45    14    42 1
    46    15    43 1
    47    16    44 1
    48    16    45 1
    49    17    46 1
    50    18    47 1
    51    18    48 1
    52    19    49 1
    53    19    50 1
    54    21    51 1
    55    29    52 1
    56    30    53 1
    57    31    54 1
    58    28    55 1
@<TRIPOS>SUBSTRUCTURE
     1 AOW         1 TEMP              0 ****  ****    0 ROOT
