@<TRIPOS>MOLECULE
AOW
   55    58     1     0     0
SMALL
bcc


@<TRIPOS>ATOM
      1 Cl           0.0000     0.0000     0.0000 cl         1 AOW       0.001600
      2 C23          1.7360     0.0000     0.0000 ca         1 AOW      -0.037600
      3 C8           2.4350     0.0000     1.2080 cp         1 AOW      -0.002000
      4 C7           1.6960    -0.0010     2.4950 cp         1 AOW      -0.056000
      5 C6           1.7900     1.0910     3.3560 ca         1 AOW      -0.081000
      6 C5           1.1010     1.0860     4.5510 ca         1 AOW      -0.107000
      7 C4           0.3190    -0.0020     4.8970 ca         1 AOW      -0.087000
      8 C3           0.2230    -1.0890     4.0460 ca         1 AOW      -0.096000
      9 C2           0.9020    -1.0920     2.8450 ca         1 AOW      -0.059300
     10 C1           0.7960    -2.2760     1.9200 c3         1 AOW      -0.003100
     11 C            1.9710    -3.2240     2.1680 c3         1 AOW       0.006900
     12 C22          2.4290    -0.0050    -1.1950 ca         1 AOW      -0.076000
     13 C11          3.8120    -0.0060    -1.1950 ca         1 AOW      -0.106300
     14 C10          4.5090    -0.0010     0.0000 ca         1 AOW      -0.095000
     15 C9           3.8270     0.0000     1.2010 ca         1 AOW      -0.081000
     16 C12          4.5630    -0.0130    -2.5010 c3         1 AOW       0.210100
     17 N            4.8070     1.3700    -2.9330 n7         1 AOW      -0.582200
     18 C13          5.5380     1.4030    -4.2060 c3         1 AOW       0.145800
     19 C14          5.7730     2.8560    -4.6220 c3         1 AOW      -0.040700
     20 C15          6.5240     2.8900    -5.9290 cc         1 AOW       0.274800
     21 N2           6.1150     3.5490    -7.0470 na         1 AOW       0.275100
     22 C21          7.0610     3.3400    -8.0170 cd         1 AOW      -0.326500
     23 C16          8.0490     2.5320    -7.4330 cd         1 AOW       0.201300
     24 N1           7.6600     2.2980    -6.1520 nd         1 AOW      -0.542000
     25 C20          7.2000     3.7540    -9.3600 cd         1 AOW      -0.239800
     26 N3           6.2650     4.5260    -9.9290 nh         1 AOW       1.093500
     27 O1           5.2900     4.8750    -9.2890 o          1 AOW      -0.411000
     28 O            6.3910     4.8800   -11.0890 oh         1 AOW      -0.535200
     29 C19          8.3290     3.3470   -10.0910 cd         1 AOW      -0.004600
     30 C18          9.2890     2.5530    -9.5010 cc         1 AOW      -0.159000
     31 C17          9.1600     2.1440    -8.1870 cc         1 AOW       0.187000
     32 H1           2.4020     1.9430     3.0860 ha         1 AOW       0.105000
     33 H2           1.1730     1.9340     5.2210 ha         1 AOW       0.105000
     34 H3          -0.2180    -0.0030     5.8370 ha         1 AOW       0.105000
     35 H4          -0.3930    -1.9370     4.3210 ha         1 AOW       0.110000
     36 H5          -0.1350    -2.7980     2.1070 hc         1 AOW       0.027700
     37 H6           0.8180    -1.9340     0.8920 hc         1 AOW       0.027700
     38 H7           1.6070    -4.1370     2.6240 hc         1 AOW       0.004033
     39 H8           2.6840    -2.7490     2.8310 hc         1 AOW       0.004033
     40 H9           2.4520    -3.4570     1.2260 hc         1 AOW       0.004033
     41 H10          1.8880    -0.0090    -2.1340 ha         1 AOW       0.117000
     42 H11          5.5920    -0.0010    -0.0060 ha         1 AOW       0.104000
     43 H12          4.3750     0.0020     2.1360 ha         1 AOW       0.117000
     44 H13          5.5090    -0.5230    -2.3710 h1         1 AOW       0.013200
     45 H14          3.9750    -0.5270    -3.2520 h1         1 AOW       0.013200
     46 H15          5.3360     1.8500    -2.2320 hn         1 AOW       0.260800
     47 H17          4.9580     0.8980    -4.9690 h1         1 AOW       0.017200
     48 H18          6.4920     0.9030    -4.0880 h1         1 AOW       0.017200
     49 H19          4.8200     3.3560    -4.7400 hc         1 AOW       0.041200
     50 H20          6.3530     3.3610    -3.8590 hc         1 AOW       0.041200
     51 H21          5.3390     4.1780    -7.1080 hn         1 AOW       0.166700
     52 H23          8.4450     3.6590   -11.1220 ha         1 AOW       0.133000
     53 H24         10.1550     2.2450   -10.0740 ha         1 AOW       0.148000
     54 H25          9.9240     1.5200    -7.7390 ha         1 AOW       0.133000
     55 H16          5.6510     5.4080   -11.3390 ho         1 AOW       0.516000
@<TRIPOS>BOND
     1     1     2 1   
     2     2     3 ar  
     3     2    12 ar  
     4     3     4 1   
     5     3    15 ar  
     6     4     5 ar  
     7     4     9 ar  
     8     5     6 ar  
     9     5    32 1   
    10     6     7 ar  
    11     6    33 1   
    12     7     8 ar  
    13     7    34 1   
    14     8     9 ar  
    15     8    35 1   
    16     9    10 1   
    17    10    11 1   
    18    10    36 1   
    19    10    37 1   
    20    11    38 1   
    21    11    39 1   
    22    11    40 1   
    23    12    13 ar  
    24    12    41 1   
    25    13    14 ar  
    26    13    16 1   
    27    14    15 ar  
    28    14    42 1   
    29    15    43 1   
    30    16    17 1   
    31    16    44 1   
    32    16    45 1   
    33    17    18 1   
    34    17    46 1   
    35    18    19 1   
    36    18    47 1   
    37    18    48 1   
    38    19    20 1   
    39    19    49 1   
    40    19    50 1   
    41    20    21 1   
    42    20    24 2   
    43    21    22 2   
    44    21    51 1   
    45    22    23 1   
    46    22    25 1   
    47    23    24 1   
    48    23    31 2   
    49    25    26 2   
    50    25    29 1   
    51    26    27 1   
    52    26    28 1   
    53    28    55 1   
    54    29    30 2   
    55    29    52 1   
    56    30    31 1   
    57    30    53 1   
    58    31    54 1   
@<TRIPOS>SUBSTRUCTURE
     1 AOW         1 TEMP              0 ****  ****    0 ROOT
