@<TRIPOS>MOLECULE
molecule
   51    54     1     0     0
SMALL
bcc


@<TRIPOS>ATOM
      1 C1           0.0000     0.0000     0.0000 c3         1 AOX      -0.071400
      2 C2           1.5300     0.0000     0.0000 c3         1 AOX      -0.092400
      3 C3           2.0390     0.0000     1.4420 c3         1 AOX       0.147100
      4 C4           1.5310    -1.2510     2.1620 c3         1 AOX      -0.089400
      5 C5           0.0010    -1.2510     2.1630 c3         1 AOX      -0.057700
      6 C6          -0.5100    -2.4990     2.8850 c3         1 AOX      -0.076400
      7 C7          -2.0410    -2.4980     2.8870 c3         1 AOX      -0.074400
      8 C8          -2.5520    -2.5010     1.4450 c3         1 AOX      -0.060700
      9 C9          -2.0420    -1.2430     0.7250 c3         1 AOX      -0.053700
     10 C10         -0.5110    -1.2490     0.7210 c3         1 AOX      -0.054000
     11 C11         -2.5670    -1.1640    -0.7040 c3         1 AOX      -0.084400
     12 C12         -4.1030    -1.2450    -0.7400 c3         1 AOX      -0.056400
     13 C13         -4.5040    -2.5400    -0.0630 c3         1 AOX      -0.179000
     14 C14         -4.0680    -2.4440     1.4240 c3         1 AOX      -0.064700
     15 C15         -4.7880    -3.6600     2.0230 c3         1 AOX      -0.076400
     16 C16         -6.1710    -3.6140     1.3170 c3         1 AOX      -0.192400
     17 C17         -5.9730    -2.8320     0.0300 c          1 AOX       0.590100
     18 C18         -3.7880    -3.7140    -0.7340 c3         1 AOX      -0.081100
     19 C19         -0.0080    -2.5010    -0.0020 c3         1 AOX      -0.091100
     20 O3           3.4690     0.0000     1.4420 oh         1 AOX      -0.606800
     21 O17         -6.8220    -2.5170    -0.7690 o          1 AOX      -0.508100
     22 H1          -0.3600     0.8840     0.5130 hc         1 AOX       0.045200
     23 H2          -0.3590    -0.0020    -1.0220 hc         1 AOX       0.045200
     24 H3           1.8900    -0.8860    -0.5090 hc         1 AOX       0.052200
     25 H4           1.8900     0.8860    -0.5090 hc         1 AOX       0.052200
     26 H5           1.6730     0.8820     1.9530 h1         1 AOX       0.028700
     27 H6           1.8910    -1.2500     3.1830 hc         1 AOX       0.053200
     28 H7           1.8900    -2.1340     1.6460 hc         1 AOX       0.053200
     29 H8          -0.3590    -0.3660     2.6740 hc         1 AOX       0.049700
     30 H9          -0.1490    -2.4970     3.9060 hc         1 AOX       0.044700
     31 H10         -0.1520    -3.3830     2.3720 hc         1 AOX       0.044700
     32 H11         -2.3990    -1.6100     3.3930 hc         1 AOX       0.042200
     33 H12         -2.4010    -3.3820     3.3980 hc         1 AOX       0.042200
     34 H13         -2.2070    -3.3900     0.9300 hc         1 AOX       0.066700
     35 H14         -2.3830    -0.3700     1.2680 hc         1 AOX       0.050700
     36 H15         -2.1570    -1.9870    -1.2770 hc         1 AOX       0.048200
     37 H16         -2.2530    -0.2260    -1.1450 hc         1 AOX       0.048200
     38 H17         -4.5270    -0.4040    -0.2050 hc         1 AOX       0.052200
     39 H18         -4.4460    -1.2460    -1.7670 hc         1 AOX       0.052200
     40 H19         -4.4280    -1.5250     1.8700 hc         1 AOX       0.063700
     41 H20         -4.9010    -3.5480     3.0940 hc         1 AOX       0.051700
     42 H21         -4.2630    -4.5750     1.7770 hc         1 AOX       0.051700
     43 H22         -6.8920    -3.1100     1.9490 hc         1 AOX       0.071200
     44 H23         -6.5050    -4.6190     1.0910 hc         1 AOX       0.071200
     45 H24         -3.3500    -4.3520     0.0240 hc         1 AOX       0.044367
     46 H25         -4.4990    -4.2840    -1.3190 hc         1 AOX       0.044367
     47 H26         -3.0060    -3.3370    -1.3830 hc         1 AOX       0.044367
     48 H27          1.0710    -2.5530     0.0750 hc         1 AOX       0.039367
     49 H28         -0.4460    -3.3810     0.4530 hc         1 AOX       0.039367
     50 H29         -0.2930    -2.4540    -1.0460 hc         1 AOX       0.039367
     51 H30          3.7830     0.7670     1.8920 ho         1 AOX       0.400000
@<TRIPOS>BOND
     1    16    15 1
     2    16    17 1
     3    15    14 1
     4    21    17 2
     5    17    13 1
     6    14    13 1
     7    14     8 1
     8     7     8 1
     9     7     6 1
    10    13    12 1
    11    13    18 1
    12     8     9 1
    13    12    11 1
    14     6     5 1
    15     9    11 1
    16     9    10 1
    17     5    10 1
    18     5     4 1
    19    10     1 1
    20    10    19 1
    21     4     3 1
    22     1     2 1
    23     3     2 1
    24     3    20 1
    25     1    22 1
    26     1    23 1
    27     2    24 1
    28     2    25 1
    29     3    26 1
    30     4    27 1
    31     4    28 1
    32     5    29 1
    33     6    30 1
    34     6    31 1
    35     7    32 1
    36     7    33 1
    37     8    34 1
    38     9    35 1
    39    11    36 1
    40    11    37 1
    41    12    38 1
    42    12    39 1
    43    14    40 1
    44    15    41 1
    45    15    42 1
    46    16    43 1
    47    16    44 1
    48    18    45 1
    49    18    46 1
    50    18    47 1
    51    19    48 1
    52    19    49 1
    53    19    50 1
    54    20    51 1
@<TRIPOS>SUBSTRUCTURE
     1 AOX         1 TEMP              0 ****  ****    0 ROOT
