@<TRIPOS>MOLECULE
AOX
   51    54     1     0     0
SMALL
bcc


@<TRIPOS>ATOM
      1 C1          0.0800   -0.0210    0.0340 c3        1 AOX     -0.068400
      2 C2          1.5690    0.1900    0.1950 c3        1 AOX     -0.113400
      3 C3          1.9980    0.1090    1.6560 c3        1 AOX      0.142100
      4 C4          1.5310   -1.1940    2.2980 c3        1 AOX     -0.071400
      5 C5          0.0300   -1.3450    2.1360 c3        1 AOX     -0.055700
      6 C6         -0.4710   -2.5820    2.8620 c3        1 AOX     -0.072400
      7 C7         -1.9820   -2.6440    2.8180 c3        1 AOX     -0.073400
      8 C8         -2.4950   -2.5990    1.3880 c3        1 AOX     -0.046700
      9 C9         -1.9540   -1.3630    0.6460 c3        1 AOX     -0.049700
     10 C10        -0.4110   -1.3350    0.6580 c3        1 AOX     -0.036000
     11 C11        -2.5340   -1.2390   -0.7580 c3        1 AOX     -0.076400
     12 C12        -4.0510   -1.3440   -0.8190 c3        1 AOX     -0.056400
     13 C13        -4.5290   -2.5910   -0.1000 c3        1 AOX     -0.152000
     14 C14        -4.0060   -2.5190    1.3540 c3        1 AOX     -0.063700
     15 C15        -4.8490   -3.5400    2.1110 c3        1 AOX     -0.072400
     16 C16        -6.2300   -3.4440    1.4570 c3        1 AOX     -0.188400
     17 C17        -6.0300   -2.7360    0.1300 c         1 AOX      0.577100
     18 C18        -4.0970   -3.8430   -0.8530 c3        1 AOX     -0.082100
     19 C19         0.1730   -2.5020   -0.1220 c3        1 AOX     -0.086100
     20 O3          3.4160    0.1300    1.7730 oh        1 AOX     -0.600800
     21 O17        -6.9260   -2.3620   -0.6210 o         1 AOX     -0.520100
     22 H1         -0.4710    0.8340    0.5070 hc        1 AOX      0.042700
     23 H2         -0.1640   -0.0180   -1.0610 hc        1 AOX      0.042700
     24 H3          1.8460    1.1960   -0.2160 hc        1 AOX      0.046700
     25 H4          2.1350   -0.5780   -0.3950 hc        1 AOX      0.046700
     26 H5          1.5700    0.9850    2.2220 h1        1 AOX      0.030700
     27 H6          2.0770   -2.0570    1.8380 hc        1 AOX      0.056200
     28 H7          1.7960   -1.1780    3.3870 hc        1 AOX      0.056200
     29 H8         -0.4520   -0.4460    2.6240 hc        1 AOX      0.045700
     30 H9         -0.1300   -2.5500    3.9300 hc        1 AOX      0.044200
     31 H10        -0.0320   -3.5020    2.3980 hc        1 AOX      0.044200
     32 H11        -2.3390   -3.5890    3.3070 hc        1 AOX      0.041200
     33 H12        -2.4110   -1.7850    3.3980 hc        1 AOX      0.041200
     34 H13        -2.1580   -3.5340    0.8610 hc        1 AOX      0.057700
     35 H14        -2.3000   -0.4560    1.2260 hc        1 AOX      0.044700
     36 H15        -2.0860   -2.0250   -1.4210 hc        1 AOX      0.043700
     37 H16        -2.2420   -0.2410   -1.1830 hc        1 AOX      0.043700
     38 H17        -4.3820   -1.3710   -1.8890 hc        1 AOX      0.050700
     39 H18        -4.5150   -0.4400   -0.3450 hc        1 AOX      0.050700
     40 H19        -4.2920   -1.5040    1.7630 hc        1 AOX      0.050700
     41 H20        -4.8950   -3.2990    3.2010 hc        1 AOX      0.049700
     42 H21        -4.4250   -4.5690    2.0050 hc        1 AOX      0.049700
     43 H22        -6.6740   -4.4550    1.2820 hc        1 AOX      0.074700
     44 H23        -6.9400   -2.8590    2.0920 hc        1 AOX      0.074700
     45 H24        -2.9970   -3.8450   -1.0360 hc        1 AOX      0.043367
     46 H25        -4.6200   -3.8800   -1.8400 hc        1 AOX      0.043367
     47 H26        -4.3600   -4.7590   -0.2710 hc        1 AOX      0.043367
     48 H27        -0.0560   -2.3940   -1.2100 hc        1 AOX      0.037033
     49 H28         1.2830   -2.5380   -0.0070 hc        1 AOX      0.037033
     50 H29        -0.2430   -3.4750    0.2310 hc        1 AOX      0.037033
     51 H30         3.7210    0.9170    1.3060 ho        1 AOX      0.398000
@<TRIPOS>BOND
     1    1    2 1   
     2    1   10 1   
     3    1   22 1   
     4    1   23 1   
     5    2    3 1   
     6    2   24 1   
     7    2   25 1   
     8    3    4 1   
     9    3   20 1   
    10    3   26 1   
    11    4    5 1   
    12    4   27 1   
    13    4   28 1   
    14    5    6 1   
    15    5   10 1   
    16    5   29 1   
    17    6    7 1   
    18    6   30 1   
    19    6   31 1   
    20    7    8 1   
    21    7   32 1   
    22    7   33 1   
    23    8    9 1   
    24    8   14 1   
    25    8   34 1   
    26    9   10 1   
    27    9   11 1   
    28    9   35 1   
    29   10   19 1   
    30   11   12 1   
    31   11   36 1   
    32   11   37 1   
    33   12   13 1   
    34   12   38 1   
    35   12   39 1   
    36   13   14 1   
    37   13   17 1   
    38   13   18 1   
    39   14   15 1   
    40   14   40 1   
    41   15   16 1   
    42   15   41 1   
    43   15   42 1   
    44   16   17 1   
    45   16   43 1   
    46   16   44 1   
    47   17   21 2   
    48   18   45 1   
    49   18   46 1   
    50   18   47 1   
    51   19   48 1   
    52   19   49 1   
    53   19   50 1   
    54   20   51 1   
@<TRIPOS>SUBSTRUCTURE
     1 AOX         1 TEMP              0 ****  ****    0 ROOT
