@<TRIPOS>MOLECULE
molecule
   28    29     1     0     0
SMALL
bcc


@<TRIPOS>ATOM
      1 N1           0.0000     0.0000     0.0000 nu         1 AOY      -0.641400
      2 C4          -4.7870    -0.3480    -1.2900 c3         1 AOY       0.150400
      3 C5          -4.2190     0.4470    -0.1080 c3         1 AOY      -0.119400
      4 C6          -2.7720     0.0030     0.1280 c3         1 AOY      -0.025200
      5 C7           1.3980     0.0000     0.0000 ca         1 AOY       0.155600
      6 C8           2.0940     0.0000     1.2030 ca         1 AOY      -0.178000
      7 C10          4.1650    -0.0030     0.0010 ca         1 AOY      -0.158000
      8 C1          -2.0330    -0.0050    -1.1850 ce         1 AOY      -0.376400
      9 C2          -0.6830    -0.0050    -1.1850 c2         1 AOY       0.178000
     10 C3          -2.7220    -0.0110    -2.4100 c          1 AOY       0.771800
     11 O1          -4.0670     0.0100    -2.4720 os         1 AOY      -0.407900
     12 O2          -2.0840    -0.0360    -3.4470 o          1 AOY      -0.622500
     13 C9           3.4750    -0.0020     1.2000 ca         1 AOY      -0.090000
     14 C11          3.4750    -0.0090    -1.1970 ca         1 AOY      -0.090000
     15 C12          2.0940    -0.0070    -1.2010 ca         1 AOY      -0.178000
     16 H2          -5.8360    -0.1080    -1.4170 h1         1 AOY       0.057200
     17 H3          -4.8080     0.2490     0.7800 hc         1 AOY       0.057700
     18 H4          -4.2410     1.5050    -0.3380 hc         1 AOY       0.057700
     19 H5          -2.2890     0.6940     0.8080 hc         1 AOY       0.041200
     20 H6          -2.7650    -0.9940     0.5510 hc         1 AOY       0.041200
     21 H7           1.5530     0.0010     2.1420 ha         1 AOY       0.137000
     22 H8           5.2480    -0.0040     0.0020 ha         1 AOY       0.134000
     23 H10         -0.1410    -0.0110    -2.1220 h4         1 AOY       0.185000
     24 H11          4.0180     0.0000     2.1380 ha         1 AOY       0.135500
     25 H12          4.0190    -0.0120    -2.1340 ha         1 AOY       0.135500
     26 H13          1.5550    -0.0120    -2.1410 ha         1 AOY       0.137000
     27 H14         -0.5000    -0.0340     0.8660 hn         1 AOY       0.453800
     28 H1          -4.6720    -1.4090    -1.1020 h1         1 AOY       0.057200
@<TRIPOS>BOND
     1     2    11 1
     2     2     3 1
     3    11    10 1
     4     3     4 1
     5    10    12 2
     6    10     8 1
     7     4     8 1
     8     8     9 2
     9     9     1 1
    10     1     5 1
    11     5     6 ar
    12     5    15 ar
    13     6    13 ar
    14    15    14 ar
    15    13     7 ar
    16    14     7 ar
    17     2    28 1
    18     2    16 1
    19     3    17 1
    20     3    18 1
    21     4    19 1
    22     4    20 1
    23     6    21 1
    24     7    22 1
    25     9    23 1
    26    13    24 1
    27    14    25 1
    28    15    26 1
    29     1    27 1
@<TRIPOS>SUBSTRUCTURE
     1 AOY         1 TEMP              0 ****  ****    0 ROOT
