@<TRIPOS>MOLECULE
AOZ
   27    27     1     0     0
SMALL
bcc


@<TRIPOS>ATOM
      1 O            0.0000     0.0000     0.0000 o          1 AOZ      -0.922300
      2 C            1.2080     0.0000     0.0000 c          1 AOZ       0.996600
      3 CA           1.9630     0.0000     1.3040 c3         1 AOZ       0.023500
      4 CB           2.8430     1.2490     1.3850 c3         1 AOZ       0.004900
      5 N            1.0090    -0.0000     2.4210 n7         1 AOZ      -0.613200
      6 CAI          1.6110    -0.5800     3.6290 c3         1 AOZ       0.004500
      7 CAE          1.4690    -2.0800     3.5910 c          1 AOZ       0.958600
      8 OAB          1.9500    -2.8260     4.5980 o          1 AOZ      -0.906300
      9 OAF          0.9200    -2.6110     2.6550 o          1 AOZ      -0.906300
     10 CAK          0.9010    -0.0300     4.8680 c3         1 AOZ      -0.018700
     11 CAL          1.1480     1.4530     4.9720 cc         1 AOZ       0.375600
     12 NAN          2.3470     2.0530     4.9870 nc         1 AOZ      -0.595000
     13 CAP          0.2020     2.4070     5.0600 cd         1 AOZ      -0.471600
     14 CAQ          2.1810     3.3440     5.0870 cd         1 AOZ       0.167400
     15 NAQ          0.8580     3.6080     5.1350 na         1 AOZ       0.212100
     16 OXT          1.8790    -0.0060    -1.1630 o          1 AOZ      -0.922300
     17 H1           2.5850    -0.8850     1.3610 h1         1 AOZ       0.027700
     18 H2           2.3020     2.0390     1.8910 hc         1 AOZ      -0.011967
     19 H3           3.1040     1.5720     0.3850 hc         1 AOZ      -0.011967
     20 H4           3.7460     1.0190     1.9370 hc         1 AOZ      -0.011967
     21 H5           0.1970    -0.5280     2.1670 hn         1 AOZ       0.305800
     22 H7           2.6620    -0.3180     3.6690 h1         1 AOZ       0.040700
     23 H9          -0.1630    -0.2140     4.7850 hc         1 AOZ       0.016700
     24 H10          1.2860    -0.5230     5.7520 hc         1 AOZ       0.016700
     25 H12         -0.8700     2.2550     5.0710 h4         1 AOZ       0.147000
     26 H13          2.9730     4.0820     5.1240 h5         1 AOZ      -0.001900
     27 H14          0.4350     4.5120     5.2100 hn         1 AOZ       0.093700
@<TRIPOS>BOND
     1     1     2 1   
     2     2     3 1   
     3     2    16 1   
     4     3     4 1   
     5     3     5 1   
     6     3    17 1   
     7     4    18 1   
     8     4    19 1   
     9     4    20 1   
    10     5     6 1   
    11     5    21 1   
    12     6     7 1   
    13     6    10 1   
    14     6    22 1   
    15     7     8 1   
    16     7     9 1   
    17    10    11 1   
    18    10    23 1   
    19    10    24 1   
    20    11    12 1   
    21    11    13 2   
    22    12    14 2   
    23    13    15 1   
    24    13    25 1   
    25    14    15 1   
    26    14    26 1   
    27    15    27 1   
@<TRIPOS>SUBSTRUCTURE
     1 AOZ         1 TEMP              0 ****  ****    0 ROOT
