@<TRIPOS>MOLECULE
molecule
   27    27     1     0     0
SMALL
bcc


@<TRIPOS>ATOM
      1 O            0.0000     0.0000     0.0000 o          1 AOZ      -0.874800
      2 C            1.2080     0.0000     0.0000 c          1 AOZ       0.905600
      3 CA           1.9630     0.0000     1.3040 c3         1 AOZ       0.073500
      4 CB           2.8430     1.2490     1.3850 c3         1 AOZ      -0.069100
      5 N            1.0090    -0.0000     2.4210 n7         1 AOZ      -0.820200
      6 CAI          1.6110    -0.5800     3.6290 c3         1 AOZ       0.060500
      7 CAE          1.4690    -2.0800     3.5910 c          1 AOZ       0.863600
      8 OAB          1.9500    -2.8260     4.5980 o          1 AOZ      -0.861300
      9 OAF          0.9200    -2.6110     2.6550 o          1 AOZ      -0.861300
     10 CAK          0.9010    -0.0300     4.8680 c3         1 AOZ      -0.073700
     11 CAL          1.1480     1.4530     4.9720 cc         1 AOZ       0.393600
     12 NAN          2.3470     2.0530     4.9870 nd         1 AOZ      -0.678000
     13 CAP          0.2020     2.4070     5.0600 cd         1 AOZ      -0.302600
     14 CAQ          2.1810     3.3440     5.0870 cc         1 AOZ       0.355400
     15 NAQ          0.8580     3.6080     5.1350 na         1 AOZ      -0.318900
     16 OXT          1.8790    -0.0060    -1.1630 o          1 AOZ      -0.874800
     17 H1           2.5850    -0.8850     1.3610 h1         1 AOZ       0.037700
     18 H2           2.3020     2.0390     1.8910 hc         1 AOZ       0.013700
     19 H3           3.1040     1.5720     0.3850 hc         1 AOZ       0.013700
     20 H4           3.7460     1.0190     1.9370 hc         1 AOZ       0.013700
     21 H5           0.1970    -0.5280     2.1670 hn         1 AOZ       0.387800
     22 H7           2.6620    -0.3180     3.6690 h1         1 AOZ       0.059700
     23 H9          -0.1630    -0.2140     4.7850 hc         1 AOZ       0.046200
     24 H10          1.2860    -0.5230     5.7520 hc         1 AOZ       0.046200
     25 H12         -0.8700     2.2550     5.0710 h4         1 AOZ       0.164000
     26 H13          2.9730     4.0820     5.1240 h5         1 AOZ       0.034100
     27 H14          0.4350     4.5120     5.2100 hn         1 AOZ       0.265700
@<TRIPOS>BOND
     1     9     7 1
     2    14    12 2
     3    14    15 1
     4    12    11 1
     5    15    13 1
     6    11    10 1
     7    11    13 2
     8     7     8 1
     9     7     6 1
    10    10     6 1
    11     6     5 1
    12     5     3 1
    13     3     2 1
    14     3     4 1
    15     1     2 1
    16     2    16 1
    17     3    17 1
    18     4    18 1
    19     4    19 1
    20     4    20 1
    21     5    21 1
    22     6    22 1
    23    10    23 1
    24    10    24 1
    25    13    25 1
    26    14    26 1
    27    15    27 1
@<TRIPOS>SUBSTRUCTURE
     1 AOZ         1 TEMP              0 ****  ****    0 ROOT
