@<TRIPOS>MOLECULE
AP
   28    31     1     0     0
SMALL
bcc


@<TRIPOS>ATOM
      1 N1           0.0000     0.0000     0.0000 nv         1 AP       -0.501200
      2 C1           1.3550     0.0000     0.0000 ca         1 AP        0.053600
      3 C2           2.0650     0.0000     1.2840 ca         1 AP       -0.119000
      4 C3           3.3780    -0.0000     1.3720 ca         1 AP       -0.072000
      5 C3A          4.1850    -0.0000     0.1390 ca         1 AP       -0.044000
      6 C4           5.4970    -0.0000     0.1520 ca         1 AP       -0.081000
      7 C5           6.2470    -0.0000    -1.1210 ca         1 AP       -0.098000
      8 C5A          5.6030    -0.0000    -2.2640 ca         1 AP       -0.024000
      9 C6           6.2930    -0.0000    -3.5650 ca         1 AP       -0.095000
     10 C7           5.5820    -0.0000    -4.6720 ca         1 AP       -0.091000
     11 C8           4.1130    -0.0000    -4.6740 ca         1 AP       -0.098000
     12 C8A          3.4160    -0.0000    -3.5620 ca         1 AP       -0.020000
     13 C9           1.9440    -0.0000    -3.5690 ca         1 AP       -0.098000
     14 C10          1.2740     0.0010    -2.4330 ca         1 AP       -0.076000
     15 C1A          1.9910    -0.0040    -1.1470 ca         1 AP       -0.092000
     16 C11          3.4650    -0.0000    -1.1490 ca         1 AP        0.010000
     17 C12          4.1290    -0.0000    -2.2710 ca         1 AP       -0.023000
     18 HN1         -0.5000     0.7460     0.4410 hn         1 AP        0.270800
     19 HN2         -0.5000    -0.7480    -0.4380 hn         1 AP        0.270800
     20 H2           1.4840    -0.0000     2.1990 ha         1 AP        0.101000
     21 H3           3.8620    -0.0000     2.3420 ha         1 AP        0.105000
     22 H4           6.0300    -0.0180     1.0950 ha         1 AP        0.105000
     23 H5           7.3300    -0.0340    -1.1110 ha         1 AP        0.106000
     24 H6           7.3750     0.0000    -3.6110 ha         1 AP        0.105000
     25 H7           6.1020    -0.0000    -5.6220 ha         1 AP        0.096000
     26 H8           3.5890     0.0000    -5.6220 ha         1 AP        0.102000
     27 H9           1.4090     0.0150    -4.5100 ha         1 AP        0.104000
     28 H10          0.1910     0.0010    -2.4460 ha         1 AP        0.103000
@<TRIPOS>BOND
     1     1     2 1   
     2     1    18 1   
     3     1    19 1   
     4     2     3 ar  
     5     2    15 ar  
     6     3     4 ar  
     7     3    20 1   
     8     4     5 ar  
     9     4    21 1   
    10     5     6 ar  
    11     5    16 ar  
    12     6     7 ar  
    13     6    22 1   
    14     7     8 ar  
    15     7    23 1   
    16     8     9 ar  
    17     8    17 ar  
    18     9    10 ar  
    19     9    24 1   
    20    10    11 ar  
    21    10    25 1   
    22    11    12 ar  
    23    11    26 1   
    24    12    13 ar  
    25    12    17 ar  
    26    13    14 ar  
    27    13    27 1   
    28    14    15 ar  
    29    14    28 1   
    30    15    16 ar  
    31    16    17 ar  
@<TRIPOS>SUBSTRUCTURE
     1 AP          1 TEMP              0 ****  ****    0 ROOT
