@<TRIPOS>MOLECULE
molecule
   96    99     1     0     0
SMALL
bcc


@<TRIPOS>ATOM
      1 C1           0.0000     0.0000     0.0000 c          1 AP1       0.662100
      2 C2           1.5080     0.0000     0.0000 c3         1 AP1       0.078700
      3 C3           2.0190     0.0000     1.4400 c3         1 AP1      -0.097400
      4 C4           3.5430     0.1370     1.4370 c3         1 AP1      -0.082400
      5 C5           3.9360     1.4620     0.7830 c3         1 AP1      -0.101400
      6 C6           3.4480     1.4760    -0.6680 c3         1 AP1       0.102000
      7 C9           1.6860     3.1980    -2.1080 c3         1 AP1      -0.094400
      8 C10          0.5980     4.2240    -2.2910 ca         1 AP1      -0.010300
      9 C11          0.7730     5.5080    -1.8110 ca         1 AP1      -0.227500
     10 C12         -0.2230     6.4560    -1.9760 ca         1 AP1       0.131100
     11 C13         -1.4030     6.1140    -2.6280 ca         1 AP1       0.041100
     12 C14         -1.5750     4.8220    -3.1110 ca         1 AP1       0.131100
     13 O15         -2.7270     4.4820    -3.7500 os         1 AP1      -0.281400
     14 O17         -0.0510     7.7180    -1.5020 os         1 AP1      -0.281400
     15 C18         -2.6020     3.1080    -4.1210 c3         1 AP1       0.100200
     16 C19         -2.1300     7.6950    -4.0380 c3         1 AP1       0.115700
     17 C20          1.2410     7.7570    -0.8930 c3         1 AP1       0.100200
     18 C21         -3.0140     8.9040     2.5680 c3         1 AP1       0.107700
     19 C22         -1.8790    -0.5140     2.9460 ca         1 AP1      -0.180000
     20 C23         -2.3370    -1.4520     3.8530 ca         1 AP1      -0.102000
     21 C24         -3.5430    -2.0900     3.6390 ca         1 AP1      -0.226000
     22 C25         -2.6260    -0.2140     1.8210 ca         1 AP1      -0.088300
     23 C26         -2.1240     0.8080     0.8340 c3         1 AP1       0.217400
     24 C27         -2.6330     2.1940     1.2310 c3         1 AP1      -0.067400
     25 C28         -2.1230     3.2300     0.2290 c3         1 AP1      -0.033100
     26 C29         -2.6260     4.5960     0.6190 ca         1 AP1      -0.068300
     27 C30         -3.8310     5.0560     0.1220 ca         1 AP1      -0.182000
     28 C31         -4.2980     6.3090     0.4840 ca         1 AP1       0.108100
     29 C32         -3.5440     7.1070     1.3410 ca         1 AP1       0.084100
     30 C33         -2.3350     6.6430     1.8310 ca         1 AP1      -0.192000
     31 C34         -1.8780     5.3900     1.4700 ca         1 AP1      -0.131000
     32 C35         -4.2940    -1.7900     2.5130 ca         1 AP1       0.146100
     33 O36         -5.4810    -2.4160     2.3010 os         1 AP1      -0.255900
     34 C37         -5.6760    -3.3130     3.3960 c3         1 AP1      -0.005600
     35 C38         -6.9830    -4.0430     3.2200 c          1 AP1       0.892600
     36 O39         -7.6760    -3.8190     2.2550 o          1 AP1      -0.829800
     37 O40         -7.3780    -4.9430     4.1340 o          1 AP1      -0.829800
     38 C41         -3.8340    -0.8460     1.6060 ca         1 AP1      -0.159000
     39 C42         -6.0080     5.7290    -0.8370 c3         1 AP1       0.100700
     40 N7           2.0040     1.2010    -0.6830 n          1 AP1      -0.485800
     41 O43         -0.6720     0.8080     0.8350 os         1 AP1      -0.427900
     42 O44         -0.6030    -0.7270    -0.7530 o          1 AP1      -0.545000
     43 C46          2.1540     2.7000    -3.4770 c3         1 AP1      -0.073400
     44 C47         -0.5700     3.8810    -2.9450 ca         1 AP1      -0.227500
     45 O48         -2.3850     7.0410    -2.7940 os         1 AP1      -0.289900
     46 O49         -5.4840     6.7610     0.0010 os         1 AP1      -0.286900
     47 O50         -3.9950     8.3410     1.6950 os         1 AP1      -0.285900
     48 H2           1.8740    -0.8820    -0.5120 h1         1 AP1       0.083700
     49 H31          1.7420    -0.9300     1.9200 hc         1 AP1       0.070200
     50 H32          1.5840     0.8340     1.9760 hc         1 AP1       0.070200
     51 H41A         3.9080     0.1160     2.4570 hc         1 AP1       0.045200
     52 H42          3.9770    -0.6830     0.8770 hc         1 AP1       0.045200
     53 H51          5.0140     1.5680     0.8020 hc         1 AP1       0.049700
     54 H52          3.4790     2.2810     1.3260 hc         1 AP1       0.049700
     55 H61          3.9680     0.7130    -1.2330 h1         1 AP1       0.050200
     56 H62          3.6350     2.4500    -1.1040 h1         1 AP1       0.050200
     57 H9           2.5210     3.6460    -1.5820 hc         1 AP1       0.065700
     58 H11          1.6920     5.7740    -1.3030 ha         1 AP1       0.150500
     59 H161         3.4550     3.4370    -5.0210 hc         1 AP1       0.036367
     60 H162         2.0890     4.4990    -4.6530 hc         1 AP1       0.036367
     61 H163         3.4610     4.4050    -3.5410 hc         1 AP1       0.036367
     62 H181        -1.7660     2.9910    -4.8000 h1         1 AP1       0.045200
     63 H182        -3.5120     2.7820    -4.6100 h1         1 AP1       0.045200
     64 H183        -2.4340     2.5080    -3.2350 h1         1 AP1       0.045200
     65 H191        -1.9720     8.7520    -3.8640 h1         1 AP1       0.032700
     66 H192        -2.9780     7.5600    -4.6980 h1         1 AP1       0.032700
     67 H193        -1.2450     7.2680    -4.4950 h1         1 AP1       0.032700
     68 H201         1.4170     8.7440    -0.4820 h1         1 AP1       0.045200
     69 H202         1.9980     7.5350    -1.6360 h1         1 AP1       0.045200
     70 H203         1.2880     7.0220    -0.0990 h1         1 AP1       0.045200
     71 H211        -2.0690     8.9860     2.0450 h1         1 AP1       0.037033
     72 H212        -2.8930     8.2650     3.4350 h1         1 AP1       0.037033
     73 H213        -3.3370     9.8880     2.8870 h1         1 AP1       0.037033
     74 H22         -0.9320    -0.0150     3.1160 ha         1 AP1       0.119000
     75 H23         -1.7500    -1.6850     4.7330 ha         1 AP1       0.114000
     76 H24         -3.9020    -2.8240     4.3500 ha         1 AP1       0.158000
     77 H26         -2.4850     0.5600    -0.1570 h1         1 AP1       0.075700
     78 H271        -2.2710     2.4410     2.2220 hc         1 AP1       0.059700
     79 H272        -3.7160     2.1940     1.2310 hc         1 AP1       0.059700
     80 H281        -2.4820     2.9820    -0.7620 hc         1 AP1       0.058700
     81 H282        -1.0390     3.2310     0.2300 hc         1 AP1       0.058700
     82 H30         -4.4150     4.4320    -0.5440 ha         1 AP1       0.150000
     83 H33         -1.7470     7.2630     2.4980 ha         1 AP1       0.134000
     84 H34         -0.9320     5.0280     1.8540 ha         1 AP1       0.126000
     85 H371        -5.6980    -2.7530     4.3230 h1         1 AP1       0.032700
     86 H372        -4.8640    -4.0290     3.4250 h1         1 AP1       0.032700
     87 H41         -4.4190    -0.6100     0.7260 ha         1 AP1       0.141000
     88 H421        -6.1500     4.8270    -0.2540 h1         1 AP1       0.044367
     89 H422        -5.3130     5.5320    -1.6450 h1         1 AP1       0.044367
     90 H423        -6.9590     6.0460    -1.2490 h1         1 AP1       0.044367
     91 H461         1.2990     2.3560    -4.0470 hc         1 AP1       0.052700
     92 H462         2.8530     1.8840    -3.3460 hc         1 AP1       0.052700
     93 H47         -0.7040     2.8740    -3.3220 ha         1 AP1       0.150500
     94 C8           1.1520     2.0380    -1.3080 c          1 AP1       0.665100
     95 C16          2.8400     3.8440    -4.2280 c3         1 AP1      -0.091100
     96 O45         -0.0450     1.8570    -1.2260 o          1 AP1      -0.574100
@<TRIPOS>BOND
     1     1     2 1
     2     1    41 1
     3     1    42 2
     4     2     3 1
     5     2    40 1
     6     2    48 1
     7     3     4 1
     8     3    49 1
     9     3    50 1
    10     4     5 1
    11     4    51 1
    12     4    52 1
    13     5     6 1
    14     5    53 1
    15     5    54 1
    16     6    40 1
    17     6    55 1
    18     6    56 1
    19    94     7 1
    20    94    40 1
    21    94    96 2
    22     7     8 1
    23     7    43 1
    24     7    57 1
    25     8     9 ar
    26     8    44 ar
    27     9    10 ar
    28     9    58 1
    29    10    11 ar
    30    10    14 1
    31    11    12 ar
    32    11    45 1
    33    12    13 1
    34    12    44 ar
    35    13    15 1
    36    95    43 1
    37    95    59 1
    38    95    60 1
    39    95    61 1
    40    14    17 1
    41    15    62 1
    42    15    63 1
    43    15    64 1
    44    16    45 1
    45    16    65 1
    46    16    66 1
    47    16    67 1
    48    17    68 1
    49    17    69 1
    50    17    70 1
    51    18    47 1
    52    18    71 1
    53    18    72 1
    54    18    73 1
    55    19    20 ar
    56    19    22 ar
    57    19    74 1
    58    20    21 ar
    59    20    75 1
    60    21    32 ar
    61    21    76 1
    62    22    23 1
    63    22    38 ar
    64    23    24 1
    65    23    41 1
    66    23    77 1
    67    24    25 1
    68    24    78 1
    69    24    79 1
    70    25    26 1
    71    25    80 1
    72    25    81 1
    73    26    27 ar
    74    26    31 ar
    75    27    28 ar
    76    27    82 1
    77    28    29 ar
    78    28    46 1
    79    29    30 ar
    80    29    47 1
    81    30    31 ar
    82    30    83 1
    83    31    84 1
    84    32    33 1
    85    32    38 ar
    86    33    34 1
    87    34    35 1
    88    34    85 1
    89    34    86 1
    90    35    36 1
    91    35    37 1
    92    38    87 1
    93    39    46 1
    94    39    88 1
    95    39    89 1
    96    39    90 1
    97    43    91 1
    98    43    92 1
    99    44    93 1
@<TRIPOS>SUBSTRUCTURE
     1 AP1         1 TEMP              0 ****  ****    0 ROOT
