@<TRIPOS>MOLECULE
molecule
   41    43     1     0     0
SMALL
bcc


@<TRIPOS>ATOM
      1 PB           0.0000     0.0000     0.0000 p5         1 AP2       1.107700
      2 O1B          1.4800     0.0000     0.0000 o          1 AP2      -0.864167
      3 O2B         -0.5350     0.0000     1.5190 o          1 AP2      -0.864167
      4 O3B         -0.5370    -1.3140    -0.7580 o          1 AP2      -0.864167
      5 C3A         -0.6070     1.4890    -0.8590 c3         1 AP2      -0.400800
      6 PA          -0.0010     1.4900    -2.5770 p5         1 AP2       1.104600
      7 O1A          1.4790     1.4890    -2.5780 o          1 AP2      -0.812500
      8 O2A         -0.5380     0.1750    -3.3360 o          1 AP2      -0.812500
      9 O5'         -0.5370     2.8040    -3.3350 os         1 AP2      -0.541200
     10 C5'         -0.0310     2.7460    -4.6700 c3         1 AP2       0.166400
     11 C4'         -0.5060     3.9730    -5.4500 c3         1 AP2       0.127100
     12 O4'         -0.0060     5.1820    -4.8390 os         1 AP2      -0.371600
     13 C3'          0.0910     3.9740    -6.8740 c3         1 AP2       0.087100
     14 O3'         -0.8520     3.4570    -7.8130 oh         1 AP2      -0.583800
     15 C2'          0.3790     5.4670    -7.1590 c3         1 AP2       0.075100
     16 O2'         -0.3760     5.9160    -8.2860 oh         1 AP2      -0.576800
     17 C1'         -0.0750     6.1880    -5.8720 c3         1 AP2       0.245800
     18 N9           0.8270     7.3000    -5.5640 na         1 AP2      -0.246000
     19 C8           1.9660     7.2300    -4.8180 cc         1 AP2       0.427700
     20 N7           2.5220     8.4040    -4.7470 nd         1 AP2      -0.622100
     21 C5           1.7810     9.2980    -5.4450 ca         1 AP2      -0.216200
     22 C6           1.8810    10.6750    -5.7060 ca         1 AP2       0.727200
     23 N6           2.9390    11.4140    -5.2080 nv         1 AP2      -1.009500
     24 N1           0.9400    11.2490    -6.4470 nb         1 AP2      -0.844000
     25 C2          -0.0720    10.5510    -6.9270 ca         1 AP2       0.651900
     26 N3          -0.2100     9.2610    -6.7020 nb         1 AP2      -0.787000
     27 C4           0.6820     8.6010    -5.9730 ca         1 AP2       0.468800
     28 H3A1        -1.6910     1.4900    -0.8580 hc         1 AP2       0.030200
     29 H3A2        -0.2460     2.3730    -0.3480 hc         1 AP2       0.030200
     30 H5'1         1.0520     2.7310    -4.6450 h1         1 AP2       0.060700
     31 H5'2        -0.3930     1.8480    -5.1550 h1         1 AP2       0.060700
     32 H4'         -1.5880     3.9990    -5.4980 h1         1 AP2       0.071700
     33 H3'          1.0100     3.4020    -6.8970 h1         1 AP2       0.057700
     34 HO3'        -0.4460     2.7750    -8.3230 ho         1 AP2       0.391000
     35 H2'          1.4390     5.6200    -7.3220 h1         1 AP2       0.041700
     36 HO2'         0.1930     5.9970    -9.0340 ho         1 AP2       0.386000
     37 H1'         -1.0930     6.5420    -5.9810 h2         1 AP2       0.095700
     38 H8           2.3510     6.3310    -4.3530 h5         1 AP2       0.106800
     39 HN61         3.0000    12.3940    -5.4020 hn         1 AP2       0.431300
     40 HN62         3.6430    10.9700    -4.6530 hn         1 AP2       0.431300
     41 H2          -0.8180    11.0590    -7.5270 h5         1 AP2       0.032100
@<TRIPOS>BOND
     1     1     2 1
     2     1     3 1
     3     1     4 1
     4     1     5 1
     5     5     6 1
     6     5    28 1
     7     5    29 1
     8     6     7 1
     9     6     8 1
    10     6     9 1
    11     9    10 1
    12    10    11 1
    13    10    30 1
    14    10    31 1
    15    11    12 1
    16    11    13 1
    17    11    32 1
    18    12    17 1
    19    13    14 1
    20    13    15 1
    21    13    33 1
    22    14    34 1
    23    15    16 1
    24    15    17 1
    25    15    35 1
    26    16    36 1
    27    17    18 1
    28    17    37 1
    29    18    19 1
    30    18    27 1
    31    19    20 2
    32    19    38 1
    33    20    21 1
    34    21    22 ar
    35    21    27 ar
    36    22    23 1
    37    22    24 ar
    38    23    39 1
    39    23    40 1
    40    24    25 ar
    41    25    26 ar
    42    25    41 1
    43    26    27 ar
@<TRIPOS>SUBSTRUCTURE
     1 AP2         1 TEMP              0 ****  ****    0 ROOT
