@<TRIPOS>MOLECULE
AP3
   35    35     1     0     0
SMALL
bcc


@<TRIPOS>ATOM
      1 C1           0.0000     0.0000     0.0000 c          1 AP3       0.993600
      2 O1          -0.6040    -0.0000     1.0460 o          1 AP3      -0.898300
      3 OXT         -0.6720    -0.0000    -1.1620 o          1 AP3      -0.898300
      4 C2           1.5070     0.0000     0.0000 c3         1 AP3      -0.135700
      5 C21          2.0170     0.0000     1.4410 c3         1 AP3       0.185800
      6 O22          3.4460    -0.0010     1.4410 oh         1 AP3      -0.575800
      7 C3           2.0170     1.2480    -0.7220 c3         1 AP3       0.334600
      8 S4           3.8550     1.2200    -0.9000 ss         1 AP3      -0.518200
      9 C5           3.9480     2.1760    -2.4760 c3         1 AP3       0.102100
     10 C51          4.9030     1.5080    -3.4670 c3         1 AP3       0.003900
     11 C52          4.3630     3.6250    -2.2130 c3         1 AP3       0.003900
     12 C6           2.4900     2.1000    -2.9770 c3         1 AP3      -0.000500
     13 C8           1.9140     3.4930    -2.9840 c          1 AP3       0.966600
     14 O81          1.2640     3.8820    -2.0430 o          1 AP3      -0.904800
     15 O82          2.1240     4.3000    -4.0350 o          1 AP3      -0.904800
     16 N7           1.6270     1.2420    -2.1630 n7         1 AP3      -0.596200
     17 C9           1.5070    -1.2490     2.1630 c3         1 AP3      -0.052600
     18 C10          1.5070     1.2500     2.1630 c3         1 AP3      -0.052600
     19 H2           1.8680    -0.8850    -0.5100 hc         1 AP3       0.048700
     20 HOM          3.7600    -0.1860     2.3100 ho         1 AP3       0.352000
     21 H3           1.6870     2.1570    -0.2340 h2         1 AP3       0.064700
     22 H511         4.9290     2.0810    -4.3860 hc         1 AP3       0.007533
     23 H512         4.5590     0.5020    -3.6790 hc         1 AP3       0.007533
     24 H513         5.8970     1.4670    -3.0400 hc         1 AP3       0.007533
     25 H521         4.3480     4.1790    -3.1440 hc         1 AP3       0.007533
     26 H522         3.6710     4.0770    -1.5130 hc         1 AP3       0.007533
     27 H523         5.3630     3.6440    -1.7980 hc         1 AP3       0.007533
     28 H6           2.4950     1.7180    -3.9910 h1         1 AP3       0.037700
     29 HN7          0.6770     1.5420    -2.2520 hn         1 AP3       0.324800
     30 H91          0.4870    -1.0860     2.4890 hc         1 AP3       0.012200
     31 H92          2.1340    -1.4490     3.0240 hc         1 AP3       0.012200
     32 H93          1.5400    -2.0950     1.4880 hc         1 AP3       0.012200
     33 H101         1.2100     0.9880     3.1710 hc         1 AP3       0.012200
     34 H102         0.6550     1.6530     1.6290 hc         1 AP3       0.012200
     35 H103         2.2950     1.9920     2.1990 hc         1 AP3       0.012200
@<TRIPOS>BOND
     1     1     2 1   
     2     1     3 1   
     3     1     4 1   
     4     4     5 1   
     5     4     7 1   
     6     4    19 1   
     7     5     6 1   
     8     5    17 1   
     9     5    18 1   
    10     6    20 1   
    11     7     8 1   
    12     7    16 1   
    13     7    21 1   
    14     8     9 1   
    15     9    10 1   
    16     9    11 1   
    17     9    12 1   
    18    10    22 1   
    19    10    23 1   
    20    10    24 1   
    21    11    25 1   
    22    11    26 1   
    23    11    27 1   
    24    12    13 1   
    25    12    16 1   
    26    12    28 1   
    27    13    14 1   
    28    13    15 1   
    29    16    29 1   
    30    17    30 1   
    31    17    31 1   
    32    17    32 1   
    33    18    33 1   
    34    18    34 1   
    35    18    35 1   
@<TRIPOS>SUBSTRUCTURE
     1 AP3         1 TEMP              0 ****  ****    0 ROOT
