@<TRIPOS>MOLECULE
AP4
   25    27     1     0     0
SMALL
bcc


@<TRIPOS>ATOM
      1 N1          0.0160    0.2310   -0.0290 nc        1 AP4     -0.725300
      2 C2          1.3590    0.0950   -0.0090 cd        1 AP4      0.705800
      3 N2          2.0810    0.3650   -1.1890 nh        1 AP4     -0.898800
      4 N3          2.0780   -0.2520    1.1390 n         1 AP4     -0.504400
      5 C4          1.4310   -0.4070    2.3930 c         1 AP4      0.737700
      6 O4          2.1430   -0.7630    3.3440 o         1 AP4     -0.592500
      7 N5         -0.6990   -0.2570    3.6310 n         1 AP4     -0.286000
      8 C6         -2.1600   -0.4020    3.5470 c3        1 AP4      0.028700
      9 C7         -2.7950    0.3350    2.3440 c3        1 AP4      0.180800
     10 N8         -2.0650    0.1340    1.1220 nh        1 AP4     -0.737000
     11 C10        -0.6700    0.1040    1.1790 cc        1 AP4      0.410600
     12 C9         -0.0100   -0.1440    2.4020 cd        1 AP4     -0.252600
     13 C11        -2.6840    0.1970    4.8780 c3        1 AP4      0.115400
     14 O12        -1.5620    0.8800    5.4650 os        1 AP4     -0.405900
     15 C13        -0.4210    0.6650    4.6880 c         1 AP4      0.791600
     16 O14         0.6040    1.2220    5.0660 o         1 AP4     -0.550500
     17 HN21        2.9230   -0.1470   -1.3180 hn        1 AP4      0.426800
     18 HN22        1.5290    0.4810   -2.0100 hn        1 AP4      0.426800
     19 HN3         3.0710   -0.3450    1.1200 hn        1 AP4      0.338500
     20 H6         -2.3850   -1.5010    3.4800 h1        1 AP4      0.100700
     21 H71        -3.8380   -0.0620    2.1910 h1        1 AP4      0.053200
     22 H72        -2.8720    1.4350    2.5910 h1        1 AP4      0.053200
     23 HN8        -2.4890    0.4940    0.2950 hn        1 AP4      0.442800
     24 H111       -3.4920    0.9540    4.7340 h1        1 AP4      0.070700
     25 H112       -3.0050   -0.6000    5.5930 h1        1 AP4      0.070700
@<TRIPOS>BOND
     1    1    2 2
     2    1   11 1
     3    2    3 1
     4    2    4 1
     5    3   17 1
     6    3   18 1
     7    4    5 1
     8    4   19 1
     9    5    6 2
    10    5   12 1
    11    7    8 1
    12    7   12 1
    13    7   15 1
    14    8    9 1
    15    8   13 1
    16    8   20 1
    17    9   10 1
    18    9   21 1
    19    9   22 1
    20   10   11 1
    21   10   23 1
    22   11   12 2
    23   13   14 1
    24   13   24 1
    25   13   25 1
    26   14   15 1
    27   15   16 2
@<TRIPOS>SUBSTRUCTURE
     1 AP4         1 TEMP              0 ****  ****    0 ROOT
