@<TRIPOS>MOLECULE
AP6
   32    34     1     0     0
SMALL
bcc


@<TRIPOS>ATOM
      1 N1           0.0000     0.0000     0.0000 nb         1 AP6      -0.724000
      2 C2           1.3240     0.0000     0.0000 ca         1 AP6       0.733900
      3 N2           2.0010     0.0060    -1.2090 nv         1 AP6      -0.506500
      4 N3           2.0170     0.0000     1.1280 nb         1 AP6      -0.730000
      5 C4           1.4050    -0.0090     2.3080 ca         1 AP6       0.605200
      6 N4           2.1440    -0.0110     3.4850 nv         1 AP6      -0.637500
      7 C9           0.0060    -0.0150     2.3510 ca         1 AP6      -0.370000
      8 C10         -0.6800    -0.0090     1.1440 ca         1 AP6       0.539200
      9 N5          -0.6360    -0.0350     3.5950 nu         1 AP6      -0.376600
     10 C6          -1.9710     0.5500     3.4700 c3         1 AP6       0.151800
     11 C7          -2.7660    -0.2150     2.4040 c3         1 AP6       0.107800
     12 N8          -2.0730    -0.0040     1.1210 nu         1 AP6      -0.493900
     13 C11         -2.6850     0.4600     4.7940 ca         1 AP6      -0.089300
     14 C12         -3.1110     1.6110     5.4300 ca         1 AP6      -0.091000
     15 C16         -2.9220    -0.7740     5.3680 ca         1 AP6      -0.091000
     16 C13         -3.7680     1.5270     6.6430 ca         1 AP6      -0.097500
     17 C15         -3.5740    -0.8570     6.5830 ca         1 AP6      -0.097500
     18 C14         -3.9990     0.2940     7.2200 ca         1 AP6      -0.098000
     19 HN21         1.4980     0.1390    -2.0640 hn         1 AP6       0.274300
     20 HN22         2.9970    -0.0930    -1.2260 hn         1 AP6       0.274300
     21 HN41         2.5510    -0.8630     3.8180 hn         1 AP6       0.278800
     22 HN42         2.2950     0.8440     3.9820 hn         1 AP6       0.278800
     23 HN5         -0.7150    -0.9800     3.9150 hn         1 AP6       0.254800
     24 H6          -1.8810     1.5880     3.1740 h1         1 AP6       0.059700
     25 H71         -2.7620    -1.2720     2.6440 h1         1 AP6       0.026700
     26 H72         -3.7670     0.1950     2.3420 h1         1 AP6       0.026700
     27 HN8         -2.3980    -0.6740     0.4520 hn         1 AP6       0.271800
     28 H12         -2.9290     2.5780     4.9770 ha         1 AP6       0.105500
     29 H16         -2.5900    -1.6770     4.8690 ha         1 AP6       0.105500
     30 H13         -4.1010     2.4290     7.1420 ha         1 AP6       0.103500
     31 H15         -3.7580    -1.8250     7.0340 ha         1 AP6       0.103500
     32 H14         -4.5120     0.2290     8.1720 ha         1 AP6       0.103000
@<TRIPOS>BOND
     1     1     2 ar  
     2     1     8 ar  
     3     2     3 1   
     4     2     4 ar  
     5     3    19 1   
     6     3    20 1   
     7     4     5 ar  
     8     5     6 1   
     9     5     7 ar  
    10     6    21 1   
    11     6    22 1   
    12     7     8 ar  
    13     7     9 1   
    14     8    12 1   
    15     9    10 1   
    16     9    23 1   
    17    10    11 1   
    18    10    13 1   
    19    10    24 1   
    20    11    12 1   
    21    11    25 1   
    22    11    26 1   
    23    12    27 1   
    24    13    14 ar  
    25    13    15 ar  
    26    14    16 ar  
    27    14    28 1   
    28    15    17 ar  
    29    15    29 1   
    30    16    18 ar  
    31    16    30 1   
    32    17    18 ar  
    33    17    31 1   
    34    18    32 1   
@<TRIPOS>SUBSTRUCTURE
     1 AP6         1 TEMP              0 ****  ****    0 ROOT
