@<TRIPOS>MOLECULE
molecule
   54    56     1     0     0
SMALL
bcc


@<TRIPOS>ATOM
      1 O1           0.0000     0.0000     0.0000 oh         1 AP9      -0.615800
      2 C15          1.4290     0.0000     0.0000 c3         1 AP9       0.118400
      3 C12          1.9400     0.0000     1.4420 c3         1 AP9       0.262500
      4 C13          1.3440    -1.1920     2.1940 c3         1 AP9      -0.091700
      5 C14          1.8340    -2.4930     1.5550 c3         1 AP9      -0.088600
      6 C16          1.7870    -1.1440     3.6570 c3         1 AP9      -0.088600
      7 N2           1.5360     1.2450     2.1020 nu         1 AP9      -0.884900
      8 C2           2.3130     2.3830     1.9670 ca         1 AP9       0.995900
      9 N3           1.9250     3.4970     2.5690 nb         1 AP9      -0.856000
     10 C4           2.6470     4.6080     2.4670 ca         1 AP9       0.516800
     11 C5           3.8250     4.5900     1.7010 ca         1 AP9      -0.254200
     12 N7           4.3570     5.8360     1.7590 nc         1 AP9      -0.581100
     13 C8           3.5990     6.5980     2.4930 cd         1 AP9       0.405700
     14 N9           2.5310     5.8850     2.9540 na         1 AP9      -0.253000
     15 C9           1.4540     6.3920     3.8100 c3         1 AP9       0.053000
     16 C10          2.0470     6.8920     5.1290 c3         1 AP9      -0.109100
     17 C11          0.7390     7.5440     3.1020 c3         1 AP9      -0.109100
     18 C6           4.1950     3.3880     1.0760 ca         1 AP9       0.812200
     19 N1           3.4180     2.3230     1.2350 nb         1 AP9      -0.870000
     20 N6           5.3460     3.3150     0.3090 nu         1 AP9      -0.750300
     21 C1A          5.7580     2.0880    -0.2170 ca         1 AP9       0.209600
     22 C2A          5.5220     0.9150     0.4870 ca         1 AP9      -0.209000
     23 C3A          5.9320    -0.3020    -0.0390 ca         1 AP9       0.221600
     24 N10          5.6950    -1.4840     0.6660 nv         1 AP9      -0.919200
     25 C4A          6.5790    -0.3440    -1.2690 ca         1 AP9      -0.227000
     26 C5A          6.8140     0.8260    -1.9670 ca         1 AP9       0.093400
     27 Cl1          7.6220     0.7700    -3.5030 cl         1 AP9      -0.112400
     28 C6A          6.4000     2.0390    -1.4490 ca         1 AP9      -0.218000
     29 HO1         -0.3140    -0.0560    -0.8870 ho         1 AP9       0.402000
     30 H151         1.7900    -0.8850    -0.5110 h1         1 AP9       0.036700
     31 H152         1.7900     0.8840    -0.5110 h1         1 AP9       0.036700
     32 H12          3.0200    -0.0760     1.4430 h1         1 AP9       0.082700
     33 H13          0.2630    -1.1480     2.1410 hc         1 AP9       0.073700
     34 H141         2.3840    -2.2660     0.6490 hc         1 AP9       0.036033
     35 H142         0.9840    -3.1200     1.3140 hc         1 AP9       0.036033
     36 H143         2.4820    -3.0140     2.2490 hc         1 AP9       0.036033
     37 H161         1.6430    -2.1170     4.1100 hc         1 AP9       0.036033
     38 H162         2.8340    -0.8720     3.7090 hc         1 AP9       0.036033
     39 H163         1.1960    -0.4070     4.1890 hc         1 AP9       0.036033
     40 HN2          0.6970     1.2730     2.6470 hn         1 AP9       0.464800
     41 H8           3.7880     7.6420     2.7070 h5         1 AP9       0.076800
     42 H9           0.7470     5.5960     4.0100 h1         1 AP9       0.091700
     43 H101         2.3090     7.9390     5.0340 hc         1 AP9       0.047533
     44 H102         2.9340     6.3180     5.3680 hc         1 AP9       0.047533
     45 H103         1.3170     6.7740     5.9210 hc         1 AP9       0.047533
     46 H111        -0.1200     7.8500     3.6870 hc         1 AP9       0.047533
     47 H112         0.4110     7.2190     2.1220 hc         1 AP9       0.047533
     48 H113         1.4200     8.3810     2.9950 hc         1 AP9       0.047533
     49 HN6          5.8800     4.1420     0.1270 hn         1 AP9       0.477800
     50 H2A          5.0980     0.9590     1.4830 ha         1 AP9       0.158000
     51 H11          5.3490    -1.4460     1.6040 hn         1 AP9       0.431300
     52 H12A         5.9230    -2.3670     0.2530 hn         1 AP9       0.431300
     53 H4A          6.8990    -1.2930    -1.6800 ha         1 AP9       0.140000
     54 H6A          6.5860     2.9540    -1.9980 ha         1 AP9       0.144000
@<TRIPOS>BOND
     1     1     2 1
     2     1    29 1
     3     2     3 1
     4     2    30 1
     5     2    31 1
     6     3     4 1
     7     3     7 1
     8     3    32 1
     9     4     5 1
    10     4     6 1
    11     4    33 1
    12     5    34 1
    13     5    35 1
    14     5    36 1
    15     6    37 1
    16     6    38 1
    17     6    39 1
    18     7     8 1
    19     7    40 1
    20     8     9 ar
    21     8    19 ar
    22     9    10 ar
    23    10    11 ar
    24    10    14 1
    25    11    12 1
    26    11    18 ar
    27    12    13 2
    28    13    14 1
    29    13    41 1
    30    14    15 1
    31    15    16 1
    32    15    17 1
    33    15    42 1
    34    16    43 1
    35    16    44 1
    36    16    45 1
    37    17    46 1
    38    17    47 1
    39    17    48 1
    40    18    19 ar
    41    18    20 1
    42    20    21 1
    43    20    49 1
    44    21    22 ar
    45    21    28 ar
    46    22    23 ar
    47    22    50 1
    48    23    24 1
    49    23    25 ar
    50    24    51 1
    51    24    52 1
    52    25    26 ar
    53    25    53 1
    54    26    27 1
    55    26    28 ar
    56    28    54 1
@<TRIPOS>SUBSTRUCTURE
     1 AP9         1 TEMP              0 ****  ****    0 ROOT
