@<TRIPOS>MOLECULE
molecule
   27    27     1     0     0
SMALL
bcc


@<TRIPOS>ATOM
      1 C1           0.0000     0.0000     0.0000 c          1 APA       0.865600
      2 O1          -0.6710     0.1070    -1.1570 o          1 APA      -0.816300
      3 OXT         -0.6050    -0.0920     1.0430 o          1 APA      -0.816300
      4 C2           1.5070     0.0000     0.0000 c3         1 APA       0.044100
      5 O2           1.9830     0.0000     1.3480 oh         1 APA      -0.623800
      6 C3           2.0170    -1.2480    -0.7210 c3         1 APA      -0.036100
      7 C1'          3.5200    -1.1880    -0.8280 ca         1 APA       0.022700
      8 C2'          4.3050    -1.7270     0.1740 ca         1 APA      -0.116000
      9 C3'          5.6800    -1.6740     0.0820 ca         1 APA      -0.088500
     10 C4'          6.2790    -1.0760    -1.0270 ca         1 APA      -0.238900
     11 C5'          5.4820    -0.5340    -2.0350 ca         1 APA      -0.088500
     12 C6'          4.1070    -0.5970    -1.9330 ca         1 APA      -0.116000
     13 C            7.7550    -1.0160    -1.1330 ce         1 APA       0.556800
     14 N1           8.3440    -0.4230    -2.2290 nz         1 APA      -0.800600
     15 N2           8.4960    -1.5220    -0.1890 n2         1 APA      -0.714100
     16 H31          1.5860    -1.2940    -1.7140 hc         1 APA       0.083700
     17 H32          1.7310    -2.1310    -0.1620 hc         1 APA       0.083700
     18 H2'          3.8380    -2.1910     1.0350 ha         1 APA       0.171000
     19 H3'          6.2940    -2.0970     0.8680 ha         1 APA       0.122500
     20 H5'          5.9410    -0.0700    -2.8990 ha         1 APA       0.122500
     21 H6'          3.4870    -0.1770    -2.7160 ha         1 APA       0.171000
     22 HN11         8.0620    -0.9040    -3.0600 hn         1 APA       0.458800
     23 HN12         8.0580     0.5340    -2.2850 hn         1 APA       0.458800
     24 HN2          9.4940    -1.4810    -0.2600 hn         1 APA       0.415400
     25 H11          1.8680     0.8850    -0.5100 h1         1 APA       0.016700
     26 H12          1.9410     0.8750     1.6960 ho         1 APA       0.403000
     27 H13          9.3390    -0.4790    -2.1440 hn         1 APA       0.458800
@<TRIPOS>BOND
     1     1     2 1
     2     1     3 1
     3     1     4 1
     4     4     5 1
     5     4     6 1
     6     6     7 1
     7     6    16 1
     8     6    17 1
     9     7     8 ar
    10     7    12 ar
    11     8     9 ar
    12     8    18 1
    13     9    10 ar
    14     9    19 1
    15    10    11 ar
    16    10    13 1
    17    11    12 ar
    18    11    20 1
    19    12    21 1
    20    13    14 1
    21    13    15 2
    22    14    22 1
    23    14    23 1
    24    15    24 1
    25     4    25 1
    26     5    26 1
    27    27    14 1
@<TRIPOS>SUBSTRUCTURE
     1 APA         1 TEMP              0 ****  ****    0 ROOT
