@<TRIPOS>MOLECULE
APA
   27    27     1     0     0
SMALL
bcc


@<TRIPOS>ATOM
      1 C1           0.0000     0.0000     0.0000 c          1 APA       0.945600
      2 O1          -0.6710     0.1070    -1.1570 o          1 APA      -0.866300
      3 OXT         -0.6050    -0.0920     1.0430 o          1 APA      -0.866300
      4 C2           1.5070     0.0000     0.0000 c3         1 APA       0.087100
      5 O2           1.9830     0.0000     1.3480 oh         1 APA      -0.607800
      6 C3           2.0170    -1.2480    -0.7210 c3         1 APA       0.014900
      7 C1'          3.5200    -1.1880    -0.8280 ca         1 APA       0.026700
      8 C2'          4.3050    -1.7270     0.1740 ca         1 APA      -0.073000
      9 C3'          5.6800    -1.6740     0.0820 ca         1 APA      -0.077000
     10 C4'          6.2790    -1.0760    -1.0270 ca         1 APA      -0.278900
     11 C5'          5.4820    -0.5340    -2.0350 ca         1 APA      -0.077000
     12 C6'          4.1070    -0.5970    -1.9330 ca         1 APA      -0.073000
     13 C            7.7550    -1.0160    -1.1330 ce         1 APA       0.236800
     14 N1           8.3440    -0.4230    -2.2290 nz         1 APA       0.188400
     15 N2           8.4960    -1.5220    -0.1890 n2         1 APA      -0.547100
     16 H31          1.5860    -1.2940    -1.7140 hc         1 APA       0.050200
     17 H32          1.7310    -2.1310    -0.1620 hc         1 APA       0.050200
     18 H2'          3.8380    -2.1910     1.0350 ha         1 APA       0.140000
     19 H3'          6.2940    -2.0970     0.8680 ha         1 APA       0.085500
     20 H5'          5.9410    -0.0700    -2.8990 ha         1 APA       0.085500
     21 H6'          3.4870    -0.1770    -2.7160 ha         1 APA       0.140000
     22 HN11         8.0580     0.5350    -2.2850 hn         1 APA       0.217133
     23 HN12         8.0620    -0.9040    -3.0600 hn         1 APA       0.217133
     24 HN2          8.0700    -1.9520     0.6080 hn         1 APA       0.384400
     25 H11          1.8680     0.8850    -0.5100 h1         1 APA      -0.011300
     26 H12          1.9410     0.8750     1.6960 ho         1 APA       0.392000
     27 H13          9.3390    -0.4800    -2.1440 hn         1 APA       0.217133
@<TRIPOS>BOND
     1     1     2 1   
     2     1     3 1   
     3     1     4 1   
     4     4     5 1   
     5     4     6 1   
     6     4    25 1   
     7     5    26 1   
     8     6     7 1   
     9     6    16 1   
    10     6    17 1   
    11     7     8 ar  
    12     7    12 ar  
    13     8     9 ar  
    14     8    18 1   
    15     9    10 ar  
    16     9    19 1   
    17    10    11 ar  
    18    10    13 1   
    19    11    12 ar  
    20    11    20 1   
    21    12    21 1   
    22    13    14 1   
    23    13    15 2   
    24    14    22 1   
    25    14    23 1   
    26    14    27 1   
    27    15    24 1   
@<TRIPOS>SUBSTRUCTURE
     1 APA         1 TEMP              0 ****  ****    0 ROOT
