@<TRIPOS>MOLECULE
APD
   26    26     1     0     0
SMALL
bcc


@<TRIPOS>ATOM
      1 C            0.0000     0.0000     0.0000 c          1 APD       0.953600
      2 O           -0.6720     0.5820    -1.0050 o          1 APD      -0.818300
      3 CA           1.5060     0.0000     0.0000 c3         1 APD      -0.197500
      4 N            1.9960     0.0000     1.3850 nz         1 APD       0.080400
      5 CB           2.0180    -1.2470    -0.7210 c3         1 APD       0.041900
      6 CG           3.5230    -1.2460    -0.7230 ca         1 APD      -0.139300
      7 CD1          4.2150    -1.8450     0.3140 ca         1 APD      -0.148000
      8 CD2          4.2140    -0.6440    -1.7560 ca         1 APD      -0.081000
      9 CE1          5.5970    -1.8450     0.3140 ca         1 APD      -0.085000
     10 CE2          5.5960    -0.6490    -1.7600 ca         1 APD      -0.073300
     11 CZ           6.2880    -1.2470    -0.7230 ca         1 APD      -0.095000
     12 C5           6.3500     0.0040    -2.8900 c3         1 APD       0.061200
     13 OXT         -0.6040    -0.5230     0.9050 o          1 APD      -0.818300
     14 HA           1.8670     0.8850    -0.5100 hx         1 APD       0.087700
     15 HN1          1.4560     0.6420     1.9300 hn         1 APD       0.212133
     16 HN2          1.9090    -0.9200     1.7700 hn         1 APD       0.212133
     17 HBC1         1.6560    -1.2480    -1.7420 hc         1 APD       0.057200
     18 HBC2         1.6580    -2.1320    -0.2100 hc         1 APD       0.057200
     19 HD1          3.6730    -2.3140     1.1260 ha         1 APD       0.098000
     20 HD2          3.6730    -0.1750    -2.5690 ha         1 APD       0.124000
     21 HE1          6.1390    -2.3140     1.1260 ha         1 APD       0.107000
     22 HZ           7.3710    -1.2490    -0.7240 ha         1 APD       0.113000
     23 H5C1         7.3370    -0.4370    -2.9670 hc         1 APD       0.013367
     24 H5C2         5.8130    -0.1490    -3.8180 hc         1 APD       0.013367
     25 H5C3         6.4430     1.0650    -2.6970 hc         1 APD       0.013367
     26 HN3          2.9530     0.2940     1.4000 hn         1 APD       0.212133
@<TRIPOS>BOND
     1     1     2 1   
     2     1     3 1   
     3     1    13 1   
     4     3     4 1   
     5     3     5 1   
     6     3    14 1   
     7     4    15 1   
     8     4    16 1   
     9     4    26 1   
    10     5     6 1   
    11     5    17 1   
    12     5    18 1   
    13     6     7 ar  
    14     6     8 ar  
    15     7     9 ar  
    16     7    19 1   
    17     8    10 ar  
    18     8    20 1   
    19     9    11 ar  
    20     9    21 1   
    21    10    11 ar  
    22    10    12 1   
    23    11    22 1   
    24    12    23 1   
    25    12    24 1   
    26    12    25 1   
@<TRIPOS>SUBSTRUCTURE
     1 APD         1 TEMP              0 ****  ****    0 ROOT
