@<TRIPOS>MOLECULE
molecule
   26    26     1     0     0
SMALL
bcc


@<TRIPOS>ATOM
      1 C            0.0000     0.0000     0.0000 c          1 APD       0.865600
      2 O           -0.6720     0.5820    -1.0050 o          1 APD      -0.775300
      3 CA           1.5060     0.0000     0.0000 c3         1 APD      -0.011500
      4 N            1.9960     0.0000     1.3850 nz         1 APD      -0.789600
      5 CB           2.0180    -1.2470    -0.7210 c3         1 APD      -0.042100
      6 CG           3.5230    -1.2460    -0.7230 ca         1 APD      -0.120300
      7 CD1          4.2150    -1.8450     0.3140 ca         1 APD      -0.170000
      8 CD2          4.2140    -0.6440    -1.7560 ca         1 APD      -0.115000
      9 CE1          5.5970    -1.8450     0.3140 ca         1 APD      -0.117000
     10 CE2          5.5960    -0.6490    -1.7600 ca         1 APD      -0.068300
     11 CZ           6.2880    -1.2470    -0.7230 ca         1 APD      -0.125000
     12 C5           6.3500     0.0040    -2.8900 c3         1 APD      -0.051800
     13 OXT         -0.6040    -0.5230     0.9050 o          1 APD      -0.775300
     14 HA           1.8670     0.8850    -0.5100 hx         1 APD       0.105700
     15 HN1          1.4560     0.6420     1.9300 hn         1 APD       0.439467
     16 HN2          1.9090    -0.9200     1.7700 hn         1 APD       0.439467
     17 HBC1         1.6560    -1.2480    -1.7420 hc         1 APD       0.091700
     18 HBC2         1.6580    -2.1320    -0.2100 hc         1 APD       0.091700
     19 HD1          3.6730    -2.3140     1.1260 ha         1 APD       0.117000
     20 HD2          3.6730    -0.1750    -2.5690 ha         1 APD       0.148000
     21 HE1          6.1390    -2.3140     1.1260 ha         1 APD       0.135000
     22 HZ           7.3710    -1.2490    -0.7240 ha         1 APD       0.138000
     23 H5C1         7.3370    -0.4370    -2.9670 hc         1 APD       0.049700
     24 H5C2         5.8130    -0.1490    -3.8180 hc         1 APD       0.049700
     25 H5C3         6.4430     1.0650    -2.6970 hc         1 APD       0.049700
     26 HN3          2.9530     0.2940     1.4000 hn         1 APD       0.439467
@<TRIPOS>BOND
     1     1     2 1
     2     1     3 1
     3     1    13 1
     4     3     4 1
     5     3     5 1
     6     3    14 1
     7     4    15 1
     8     4    16 1
     9     5     6 1
    10     5    17 1
    11     5    18 1
    12     6     7 ar
    13     6     8 ar
    14     7     9 ar
    15     7    19 1
    16     8    10 ar
    17     8    20 1
    18     9    11 ar
    19     9    21 1
    20    10    11 ar
    21    10    12 1
    22    11    22 1
    23    12    23 1
    24    12    24 1
    25    12    25 1
    26    26     4 1
@<TRIPOS>SUBSTRUCTURE
     1 APD         1 TEMP              0 ****  ****    0 ROOT
