@<TRIPOS>MOLECULE
APF
   30    30     1     0     0
SMALL
bcc


@<TRIPOS>ATOM
      1 CN2          0.0000     0.0000     0.0000 c3         1 APF      -0.063100
      2 CN1          1.5060     0.0000     0.0000 c          1 APF       0.575100
      3 ON1          2.1140     0.0000     1.0490 o          1 APF      -0.642100
      4 N3           2.1810     0.0010    -1.1670 ns         1 APF      -0.184900
      5 C3           3.6450    -0.0000    -1.1680 c3         1 APF      -0.059300
      6 C2           4.1470     1.4220    -1.1680 c          1 APF       0.533100
      7 C1           5.4630     1.7560    -0.5160 c3         1 APF       0.491900
      8 C4           4.1550    -0.7190    -2.4160 c3         1 APF       0.027900
      9 O2           3.4930     2.2930    -1.6910 o          1 APF      -0.470100
     10 F11          5.7120     3.1270    -0.6440 f          1 APF      -0.193633
     11 F12          5.4110     1.4160     0.8390 f          1 APF      -0.193633
     12 F13          6.4880     1.0360    -1.1400 f          1 APF      -0.193633
     13 CP1          3.6530    -2.1410    -2.4170 ca         1 APF      -0.102300
     14 CP2          2.4460    -2.4470    -3.0150 ca         1 APF      -0.094500
     15 CP3          1.9850    -3.7510    -3.0140 ca         1 APF      -0.093500
     16 CP4          2.7340    -4.7470    -2.4170 ca         1 APF      -0.094000
     17 CP5          3.9410    -4.4410    -1.8200 ca         1 APF      -0.093500
     18 CP6          4.4040    -3.1370    -1.8240 ca         1 APF      -0.094500
     19 HC21        -0.3610     0.7100    -0.7340 hc         1 APF       0.025367
     20 HC22        -0.3610     0.2800     0.9820 hc         1 APF       0.025367
     21 HC23        -0.3610    -0.9910    -0.2480 hc         1 APF       0.025367
     22 HN3          1.6810     0.0410    -2.0330 hn         1 APF       0.186500
     23 H3           4.0070    -0.5110    -0.2840 h1         1 APF       0.087700
     24 H41          5.2380    -0.7180    -2.4170 hc         1 APF       0.034700
     25 H42          3.7930    -0.2090    -3.3010 hc         1 APF       0.034700
     26 HP2          1.8590    -1.6650    -3.4830 ha         1 APF       0.105500
     27 HP3          1.0380    -3.9920    -3.4830 ha         1 APF       0.105000
     28 HP4          2.3730    -5.7690    -2.4150 ha         1 APF       0.105000
     29 HP5          4.5290    -5.2220    -1.3540 ha         1 APF       0.105000
     30 HP6          5.3510    -2.8970    -1.3560 ha         1 APF       0.105500
@<TRIPOS>BOND
     1     1     2 1   
     2     1    19 1   
     3     1    20 1   
     4     1    21 1   
     5     2     3 2   
     6     2     4 1   
     7     4     5 1   
     8     4    22 1   
     9     5     6 1   
    10     5     8 1   
    11     5    23 1   
    12     6     7 1   
    13     6     9 2   
    14     7    10 1   
    15     7    11 1   
    16     7    12 1   
    17     8    13 1   
    18     8    24 1   
    19     8    25 1   
    20    13    14 ar  
    21    13    18 ar  
    22    14    15 ar  
    23    14    26 1   
    24    15    16 ar  
    25    15    27 1   
    26    16    17 ar  
    27    16    28 1   
    28    17    18 ar  
    29    17    29 1   
    30    18    30 1   
@<TRIPOS>SUBSTRUCTURE
     1 APF         1 TEMP              0 ****  ****    0 ROOT
