@<TRIPOS>MOLECULE
molecule
   21    21     1     0     0
SMALL
bcc


@<TRIPOS>ATOM
      1 C1           0.0000     0.0000     0.0000 ca         1 APG      -0.148500
      2 C2           1.3830     0.0000     0.0000 ca         1 APG      -0.104500
      3 C3           2.0730     0.0000     1.1970 ca         1 APG      -0.008300
      4 C4           1.3820    -0.0050     2.3930 ca         1 APG      -0.104500
      5 C5          -0.0010    -0.0000     2.3930 ca         1 APG      -0.148500
      6 C6          -0.6910     0.0010     1.1960 ca         1 APG      -0.157000
      7 C12          3.5790     0.0000     1.1970 c3         1 APG       0.083100
      8 O17          4.0560     0.6730     0.0300 oh         1 APG      -0.614800
      9 C13          4.0820    -1.4200     1.1970 c          1 APG       0.879600
     10 C14          4.0900     0.7220     2.4450 c3         1 APG      -0.103100
     11 O14          4.7770    -1.8160     0.2930 o          1 APG      -0.832300
     12 O15          3.7580    -2.2450     2.2050 o          1 APG      -0.832300
     13 H1          -0.5410     0.0010    -0.9380 ha         1 APG       0.107000
     14 H2           1.9250     0.0010    -0.9380 ha         1 APG       0.142000
     15 H4           1.9240    -0.0050     3.3310 ha         1 APG       0.142000
     16 H5          -0.5420    -0.0020     3.3320 ha         1 APG       0.107000
     17 H6          -1.7750     0.0030     1.1960 ha         1 APG       0.102000
     18 HO17         4.9860     0.8090     0.1040 ho         1 APG       0.400000
     19 H141         5.1630     0.8500     2.3740 hc         1 APG       0.030700
     20 H142         3.8520     0.1360     3.3240 hc         1 APG       0.030700
     21 H143         3.6150     1.6940     2.5190 hc         1 APG       0.030700
@<TRIPOS>BOND
     1     1     2 ar
     2     1     6 ar
     3     1    13 1
     4     2     3 ar
     5     2    14 1
     6     3     4 ar
     7     3     7 1
     8     4     5 ar
     9     4    15 1
    10     5     6 ar
    11     5    16 1
    12     6    17 1
    13     7     8 1
    14     7     9 1
    15     7    10 1
    16     8    18 1
    17     9    11 1
    18     9    12 1
    19    10    19 1
    20    10    20 1
    21    10    21 1
@<TRIPOS>SUBSTRUCTURE
     1 APG         1 TEMP              0 ****  ****    0 ROOT
