@<TRIPOS>MOLECULE
APG
   21    21     1     0     0
SMALL
bcc


@<TRIPOS>ATOM
      1 C1          0.0130    0.4050    0.0510 ca        1 APG     -0.152000
      2 C2          1.4070    0.4290    0.0770 ca        1 APG     -0.122000
      3 C3          2.1050   -0.0270    1.2020 ca        1 APG     -0.045300
      4 C4          1.3810   -0.5180    2.2980 ca        1 APG     -0.122000
      5 C5         -0.0110   -0.5390    2.2690 ca        1 APG     -0.152000
      6 C6         -0.7000   -0.0740    1.1480 ca        1 APG     -0.161000
      7 C12         3.6100    0.0170    1.2600 c3        1 APG      0.054100
      8 O17         4.1290    0.3490   -0.0250 oh        1 APG     -0.640800
      9 C13         4.1900   -1.3610    1.7420 c         1 APG      0.908600
     10 C14         4.0600    1.1110    2.2210 c3        1 APG     -0.068100
     11 O14         4.8030   -2.0380    0.8700 o         1 APG     -0.824800
     12 O15         4.0330   -1.6940    2.9460 o         1 APG     -0.824800
     13 H1         -0.5230    0.7650   -0.8380 ha        1 APG      0.107500
     14 H2          1.9760    0.8030   -0.7880 ha        1 APG      0.159000
     15 H4          1.9420   -0.9130    3.1660 ha        1 APG      0.159000
     16 H5         -0.5690   -0.9290    3.1310 ha        1 APG      0.107500
     17 H6         -1.7980   -0.0920    1.1280 ha        1 APG      0.103000
     18 HO17        4.5170   -0.4650   -0.3890 ho        1 APG      0.429000
     19 H141        5.1710    1.1980    2.1850 hc        1 APG      0.029033
     20 H142        3.6150    2.0950    1.9400 hc        1 APG      0.029033
     21 H143        3.7460    0.8340    3.2550 hc        1 APG      0.029033
@<TRIPOS>BOND
     1    1    2 ar  
     2    1    6 ar  
     3    1   13 1   
     4    2    3 ar  
     5    2   14 1   
     6    3    4 ar  
     7    3    7 1   
     8    4    5 ar  
     9    4   15 1   
    10    5    6 ar  
    11    5   16 1   
    12    6   17 1   
    13    7    8 1   
    14    7    9 1   
    15    7   10 1   
    16    8   18 1   
    17    9   11 1   
    18    9   12 1   
    19   10   19 1   
    20   10   20 1   
    21   10   21 1   
@<TRIPOS>SUBSTRUCTURE
     1 APG         1 TEMP              0 ****  ****    0 ROOT
