@<TRIPOS>MOLECULE
molecule
   41    45     1     0     0
SMALL
bcc


@<TRIPOS>ATOM
      1 N1           0.0000     0.0000     0.0000 nb         1 APJ      -0.842000
      2 N2           2.0200     0.0000     1.1280 nb         1 APJ      -0.809000
      3 N3          -2.0630    -0.0000     1.1400 nu         1 APJ      -0.749300
      4 N4          -4.1010     0.2410    -0.2070 na         1 APJ      -0.075600
      5 N5          -4.3800     0.3250    -1.5760 nc         1 APJ      -0.505800
      6 N6           2.0000     0.0000    -1.2100 nu         1 APJ      -0.746300
      7 N7           7.4760    -0.6560    -1.1430 na         1 APJ      -0.271300
      8 N8           6.3330    -1.6280     0.4400 nd         1 APJ      -0.603100
      9 C9           1.3240     0.0000     0.0000 ca         1 APJ       0.969900
     10 C10         -0.6770    -0.0000     1.1440 ca         1 APJ       0.767200
     11 C11          0.0280    -0.0010     2.3490 ca         1 APJ      -0.489600
     12 C12          1.4090    -0.0010     2.3040 ca         1 APJ       0.527200
     13 C13         -2.7570     0.1090    -0.0630 cc         1 APJ       0.151300
     14 C14         -3.2520     0.2480    -2.2330 cd         1 APJ       0.381600
     15 C15         -2.2120     0.1060    -1.3110 cd         1 APJ      -0.352300
     16 C16         -3.0990     0.2970    -3.7320 cx         1 APJ      -0.151000
     17 C17         -3.0340    -1.0350    -4.4800 cx         1 APJ      -0.130900
     18 C18         -1.7720    -0.1830    -4.3240 cx         1 APJ      -0.130900
     19 C19          3.3820    -0.1200    -1.2610 ca         1 APJ       0.135600
     20 C20          4.0350    -0.8570    -0.2930 ca         1 APJ      -0.068000
     21 C21          5.4260    -0.9820    -0.3370 ca         1 APJ       0.108400
     22 C22          6.1450    -0.3540    -1.3680 ca         1 APJ      -0.111200
     23 C23          5.4740     0.3850    -2.3340 ca         1 APJ      -0.112000
     24 C24          4.1020     0.5000    -2.2810 ca         1 APJ      -0.141000
     25 C25          7.5310    -1.4340    -0.0290 cc         1 APJ       0.427700
     26 HN3         -2.5660    -0.0890     2.0010 hn         1 APJ       0.456800
     27 HN6          1.4900     0.0610    -2.0680 hn         1 APJ       0.462800
     28 H11         -0.4960    -0.0010     3.2970 ha         1 APJ       0.142000
     29 H12          1.9860    -0.0010     3.2200 h4         1 APJ       0.034100
     30 H15         -1.1580     0.0170    -1.5470 ha         1 APJ       0.198000
     31 H16         -3.5750     1.1020    -4.2800 hc         1 APJ       0.093700
     32 H17         -3.0790    -1.9220    -3.8590 hc         1 APJ       0.076700
     33 H17A        -3.4770    -1.0390    -5.4690 hc         1 APJ       0.076700
     34 H18         -1.0470    -0.5490    -3.6080 hc         1 APJ       0.076700
     35 H18A        -1.4440     0.3350    -5.2170 hc         1 APJ       0.076700
     36 H20          3.4640    -1.4250     0.4320 ha         1 APJ       0.168000
     37 H23          6.0290     0.8680    -3.1290 ha         1 APJ       0.128000
     38 H24          3.5800     1.0750    -3.0360 ha         1 APJ       0.134000
     39 H25          8.4350    -1.8370     0.4100 h5         1 APJ       0.072800
     40 HN7          8.2540    -0.3570    -1.6980 hn         1 APJ       0.300700
     41 HN4         -4.7730     0.2720     0.5350 hn         1 APJ       0.321700
@<TRIPOS>BOND
     1     1     9 ar
     2     1    10 ar
     3     9     2 ar
     4     2    12 ar
     5    13     3 1
     6     3    10 1
     7     3    26 1
     8     5     4 1
     9     4    13 1
    10    14     5 2
    11    19     6 1
    12     6     9 1
    13     6    27 1
    14    25     7 1
    15     7    22 1
    16    25     8 2
    17     8    21 1
    18    10    11 ar
    19    11    12 ar
    20    11    28 1
    21    12    29 1
    22    15    13 2
    23    16    14 1
    24    14    15 1
    25    15    30 1
    26    18    16 1
    27    17    16 1
    28    16    31 1
    29    18    17 1
    30    17    32 1
    31    17    33 1
    32    18    34 1
    33    18    35 1
    34    20    19 ar
    35    24    19 ar
    36    21    20 ar
    37    20    36 1
    38    22    21 ar
    39    22    23 ar
    40    23    24 ar
    41    23    37 1
    42    24    38 1
    43    25    39 1
    44     4    41 1
    45     7    40 1
@<TRIPOS>SUBSTRUCTURE
     1 APJ         1 TEMP              0 ****  ****    0 ROOT
