@<TRIPOS>MOLECULE
APJ
   41    45     1     0     0
SMALL
bcc


@<TRIPOS>ATOM
      1 N1           0.0000     0.0000     0.0000 nb         1 APJ      -0.733000
      2 N2           2.0200     0.0000     1.1280 nb         1 APJ      -0.719000
      3 N3          -2.0630    -0.0000     1.1400 nu         1 APJ      -0.259300
      4 N4          -4.1010     0.2410    -0.2070 na         1 APJ       0.407400
      5 N5          -4.3800     0.3250    -1.5760 nc         1 APJ      -0.653800
      6 N6           2.0000     0.0000    -1.2100 nu         1 APJ      -0.273300
      7 N7           7.4760    -0.6560    -1.1430 na         1 APJ       0.255700
      8 N8           6.3330    -1.6280     0.4400 nc         1 APJ      -0.521100
      9 C9           1.3240     0.0000     0.0000 ca         1 APJ       0.733900
     10 C10         -0.6770    -0.0000     1.1440 ca         1 APJ       0.565200
     11 C11          0.0280    -0.0010     2.3490 ca         1 APJ      -0.480600
     12 C12          1.4090    -0.0010     2.3040 ca         1 APJ       0.529200
     13 C13         -2.7570     0.1090    -0.0630 cc         1 APJ      -0.166700
     14 C14         -3.2520     0.2480    -2.2330 cd         1 APJ       0.413600
     15 C15         -2.2120     0.1060    -1.3110 cd         1 APJ      -0.357300
     16 C16         -3.0990     0.2970    -3.7320 cx         1 APJ      -0.116000
     17 C17         -3.0340    -1.0350    -4.4800 cx         1 APJ      -0.080400
     18 C18         -1.7720    -0.1830    -4.3240 cx         1 APJ      -0.080400
     19 C19          3.3820    -0.1200    -1.2610 ca         1 APJ      -0.027400
     20 C20          4.0350    -0.8570    -0.2930 ca         1 APJ      -0.042000
     21 C21          5.4260    -0.9820    -0.3370 ca         1 APJ       0.084400
     22 C22          6.1450    -0.3540    -1.3680 ca         1 APJ      -0.291200
     23 C23          5.4740     0.3850    -2.3340 ca         1 APJ      -0.068000
     24 C24          4.1020     0.5000    -2.2810 ca         1 APJ      -0.116000
     25 C25          7.5310    -1.4340    -0.0290 cd         1 APJ       0.243700
     26 HN3         -2.5660    -0.0890     2.0010 hn         1 APJ       0.278800
     27 HN6          1.4900     0.0610    -2.0680 hn         1 APJ       0.287800
     28 H11         -0.4960    -0.0010     3.2970 ha         1 APJ       0.127000
     29 H12          1.9860    -0.0010     3.2200 h4         1 APJ      -0.017900
     30 H15         -1.1580     0.0170    -1.5470 ha         1 APJ       0.189000
     31 H16         -3.5750     1.1020    -4.2800 hc         1 APJ       0.062700
     32 H17         -3.0790    -1.9220    -3.8590 hc         1 APJ       0.046200
     33 H17A        -3.4770    -1.0390    -5.4690 hc         1 APJ       0.046200
     34 H18         -1.0470    -0.5490    -3.6080 hc         1 APJ       0.046200
     35 H18A        -1.4440     0.3350    -5.2170 hc         1 APJ       0.046200
     36 H20          3.4640    -1.4250     0.4320 ha         1 APJ       0.140000
     37 H23          6.0290     0.8680    -3.1290 ha         1 APJ       0.099000
     38 H24          3.5800     1.0750    -3.0360 ha         1 APJ       0.107000
     39 H25          8.4350    -1.8370     0.4100 h5         1 APJ       0.024800
     40 HN7          8.2540    -0.3570    -1.6980 hn         1 APJ       0.125700
     41 HN4         -4.7730     0.2720     0.5350 hn         1 APJ       0.144700
@<TRIPOS>BOND
     1     1     9 ar  
     2     1    10 ar  
     3     2     9 ar  
     4     2    12 ar  
     5     3    10 1   
     6     3    13 1   
     7     3    26 1   
     8     4     5 1   
     9     4    13 1   
    10     4    41 1   
    11     5    14 2   
    12     6     9 1   
    13     6    19 1   
    14     6    27 1   
    15     7    22 1   
    16     7    25 1   
    17     7    40 1   
    18     8    21 1   
    19     8    25 2   
    20    10    11 ar  
    21    11    12 ar  
    22    11    28 1   
    23    12    29 1   
    24    13    15 2   
    25    14    15 1   
    26    14    16 1   
    27    15    30 1   
    28    16    17 1   
    29    16    18 1   
    30    16    31 1   
    31    17    18 1   
    32    17    32 1   
    33    17    33 1   
    34    18    34 1   
    35    18    35 1   
    36    19    20 ar  
    37    19    24 ar  
    38    20    21 ar  
    39    20    36 1   
    40    21    22 ar  
    41    22    23 ar  
    42    23    24 ar  
    43    23    37 1   
    44    24    38 1   
    45    25    39 1   
@<TRIPOS>SUBSTRUCTURE
     1 APJ         1 TEMP              0 ****  ****    0 ROOT
