@<TRIPOS>MOLECULE
molecule
   33    33     1     0     0
SMALL
bcc


@<TRIPOS>ATOM
      1 CN2          0.0000     0.0000     0.0000 c3         1 APL      -0.165100
      2 CN1          1.5060     0.0000     0.0000 c          1 APL       0.665100
      3 ON1          2.1120     0.0000     1.0500 o          1 APL      -0.608100
      4 N3           2.1810    -0.0010    -1.1660 ns         1 APL      -0.578900
      5 C3           3.6460    -0.0020    -1.1650 c3         1 APL       0.144700
      6 C2           4.1560     1.4400    -1.1660 c3         1 APL       0.291600
      7 C1           3.7630     2.1210     0.1470 c3         1 APL       0.577900
      8 C4           4.1560    -0.7240    -2.4130 c3         1 APL      -0.040100
      9 OY           5.5790     1.4420    -1.2960 oh         1 APL      -0.596300
     10 OX           3.5770     2.1500    -2.2620 oh         1 APL      -0.596300
     11 F11          4.3540     3.3880     0.2100 f          1 APL      -0.214633
     12 F12          2.3730     2.2510     0.2070 f          1 APL      -0.214633
     13 F13          4.2050     1.3460     1.2250 f          1 APL      -0.214633
     14 CP1          3.7660    -2.1780    -2.3470 ca         1 APL      -0.087300
     15 CP2          2.5610    -2.5950    -2.8810 ca         1 APL      -0.120500
     16 CP3          2.2040    -3.9290    -2.8210 ca         1 APL      -0.124500
     17 CP4          3.0500    -4.8450    -2.2280 ca         1 APL      -0.126000
     18 CP5          4.2550    -4.4290    -1.6950 ca         1 APL      -0.124500
     19 CP6          4.6150    -3.0950    -1.7580 ca         1 APL      -0.120500
     20 HC21        -0.3610    -1.0080    -0.1630 hc         1 APL       0.062033
     21 HC22        -0.3610     0.3630     0.9550 hc         1 APL       0.062033
     22 HC23        -0.3610     0.6450    -0.7920 hc         1 APL       0.062033
     23 HN3          1.6820     0.0170    -2.0330 hn         1 APL       0.324500
     24 H3           4.0060    -0.5130    -0.2800 h1         1 APL       0.117700
     25 H41          5.2350    -0.6410    -2.4630 hc         1 APL       0.069700
     26 H42          3.7190    -0.2730    -3.2960 hc         1 APL       0.069700
     27 HY           5.8840     2.3280    -1.3980 ho         1 APL       0.418500
     28 HX           4.1180     2.8910    -2.4770 ho         1 APL       0.418500
     29 HP2          1.8970    -1.8770    -3.3470 ha         1 APL       0.129000
     30 HP3          1.2590    -4.2550    -3.2390 ha         1 APL       0.130500
     31 HP4          2.7680    -5.8900    -2.1790 ha         1 APL       0.130000
     32 HP5          4.9200    -5.1480    -1.2310 ha         1 APL       0.130500
     33 HP6          5.5600    -2.7690    -1.3410 ha         1 APL       0.129000
@<TRIPOS>BOND
     1     1     2 1
     2     1    20 1
     3     1    21 1
     4     1    22 1
     5     2     3 2
     6     2     4 1
     7     4     5 1
     8     4    23 1
     9     5     6 1
    10     5     8 1
    11     5    24 1
    12     6     7 1
    13     6     9 1
    14     6    10 1
    15     7    11 1
    16     7    12 1
    17     7    13 1
    18     8    14 1
    19     8    25 1
    20     8    26 1
    21     9    27 1
    22    10    28 1
    23    14    15 ar
    24    14    19 ar
    25    15    16 ar
    26    15    29 1
    27    16    17 ar
    28    16    30 1
    29    17    18 ar
    30    17    31 1
    31    18    19 ar
    32    18    32 1
    33    19    33 1
@<TRIPOS>SUBSTRUCTURE
     1 APL         1 TEMP              0 ****  ****    0 ROOT
