@<TRIPOS>MOLECULE
APQ
   34    35     1     0     0
SMALL
bcc


@<TRIPOS>ATOM
      1 C10        -0.0740    0.0140   -0.0020 c3        1 APQ     -0.010300
      2 C11         1.4180   -0.1840   -0.0750 c3        1 APQ     -0.071400
      3 C12         2.0740    0.1120    1.2510 c3        1 APQ     -0.092100
      4 S1         -0.7430   -0.3640   -1.5960 ss        1 APQ     -0.311200
      5 C9         -2.4780   -0.0720   -1.3270 c3        1 APQ      0.048000
      6 C2         -3.1410   -0.0100   -2.6500 ca        1 APQ     -0.036300
      7 C3         -3.4770    1.2320   -3.2640 ca        1 APQ      0.186400
      8 N3         -3.1860    2.4370   -2.6250 nc        1 APQ     -0.670100
      9 C8         -3.5310    3.5800   -3.2280 cd        1 APQ      0.651800
     10 N1         -4.1220    3.6400   -4.5120 n         1 APQ     -0.502400
     11 C7         -4.4520    2.4610   -5.1990 c         1 APQ      0.716100
     12 O1         -5.0000    2.5640   -6.3110 o         1 APQ     -0.625500
     13 C4         -4.1030    1.1910   -4.5360 ca        1 APQ     -0.165600
     14 C5         -4.3990   -0.0120   -5.1780 ca        1 APQ     -0.118000
     15 C6         -4.0780   -1.2340   -4.5630 ca        1 APQ      0.108600
     16 N4         -4.4510   -2.4550   -5.1410 nh        1 APQ     -0.810200
     17 C1         -3.4420   -1.2030   -3.2960 ca        1 APQ     -0.131000
     18 N2         -3.3600    4.8150   -2.5440 nh        1 APQ     -0.879800
     19 H101       -0.3180    1.0670    0.2790 h1        1 APQ      0.057700
     20 H102       -0.5210   -0.6550    0.7740 h1        1 APQ      0.057700
     21 H111        1.6430   -1.2420   -0.3770 hc        1 APQ      0.054200
     22 H112        1.8480    0.4870   -0.8660 hc        1 APQ      0.054200
     23 H121        1.8820    1.1680    1.5590 hc        1 APQ      0.035033
     24 H122        1.6770   -0.5630    2.0470 hc        1 APQ      0.035033
     25 H123        3.1780   -0.0400    1.1760 hc        1 APQ      0.035033
     26 H91        -2.8990   -0.9150   -0.7230 h1        1 APQ      0.075200
     27 H92        -2.6200    0.8650   -0.7350 h1        1 APQ      0.075200
     28 HN11       -4.4060    4.5110   -4.9020 hn        1 APQ      0.336500
     29 H51        -4.8910    0.0230   -6.1640 ha        1 APQ      0.159000
     30 HN41       -3.8790   -3.2230   -4.8670 hn        1 APQ      0.388800
     31 HN42       -4.5890   -2.4080   -6.1280 hn        1 APQ      0.388800
     32 H11        -3.1750   -2.1520   -2.8010 ha        1 APQ      0.144000
     33 HN21       -2.9920    5.5460   -3.1150 hn        1 APQ      0.408300
     34 HN22       -2.8740    4.7230   -1.6750 hn        1 APQ      0.408300
@<TRIPOS>BOND
     1    1    2 1
     2    1    4 1
     3    1   19 1
     4    1   20 1
     5    2    3 1
     6    2   21 1
     7    2   22 1
     8    3   23 1
     9    3   24 1
    10    3   25 1
    11    4    5 1
    12    5    6 1
    13    5   26 1
    14    5   27 1
    15    6    7 ar
    16    6   17 ar
    17    7    8 1
    18    7   13 ar
    19    8    9 2
    20    9   10 1
    21    9   18 1
    22   10   11 1
    23   10   28 1
    24   11   12 2
    25   11   13 1
    26   13   14 ar
    27   14   15 ar
    28   14   29 1
    29   15   16 1
    30   15   17 ar
    31   16   30 1
    32   16   31 1
    33   17   32 1
    34   18   33 1
    35   18   34 1
@<TRIPOS>SUBSTRUCTURE
     1 APQ         1 TEMP              0 ****  ****    0 ROOT
