@<TRIPOS>MOLECULE
molecule
   25    26     1     0     0
SMALL
bcc


@<TRIPOS>ATOM
      1 C7           0.0000     0.0000     0.0000 c3         1 APS       0.056300
      2 C8           1.5300     0.0000     0.0000 c3         1 APS       0.124100
      3 O1           2.0050     0.0000     1.3470 oh         1 APS      -0.585800
      4 C9           2.0400    -1.2480    -0.7230 c3         1 APS      -0.125100
      5 C4          -0.7650     1.3030     2.0290 ca         1 APS       0.457800
      6 C3          -1.2020     2.6230     2.2310 ca         1 APS      -0.166200
      7 C2          -1.5530     3.0150     3.5320 ca         1 APS       0.775200
      8 N2          -1.4510     2.1220     4.5120 nb         1 APS      -0.775000
      9 C1          -1.0310     0.8920     4.2760 ca         1 APS       0.701900
     10 N5          -1.9940     4.3000     3.7920 nv         1 APS      -1.073500
     11 N4          -0.4890     1.1950     0.6920 na         1 APS      -0.250000
     12 N3          -1.1770     3.2380     1.0250 nc         1 APS      -0.575100
     13 C6          -0.7590     2.4030     0.1200 cd         1 APS       0.419700
     14 N1          -0.6910     0.4810     3.0720 nb         1 APS      -0.739000
     15 H72         -0.3610    -0.8850     0.5100 h1         1 APS       0.077200
     16 H71         -0.3610     0.0010    -1.0210 h1         1 APS       0.077200
     17 H8           1.8910     0.8850    -0.5100 h1         1 APS       0.033700
     18 H1           2.9050     0.2810     1.3620 ho         1 APS       0.405000
     19 H93          1.7240    -2.1320    -0.1830 hc         1 APS       0.046367
     20 H92          3.1220    -1.2210    -0.7690 hc         1 APS       0.046367
     21 H91          1.6370    -1.2740    -1.7280 hc         1 APS       0.046367
     22 H52         -2.9710     4.5120     3.7460 hn         1 APS       0.442800
     23 H51         -1.3380     5.0150     4.0350 hn         1 APS       0.442800
     24 H6          -0.6440     2.6320    -0.9330 h5         1 APS       0.076800
     25 H1C1        -0.9630     0.1960     5.1030 h5         1 APS       0.061100
@<TRIPOS>BOND
     1     1     2 1
     2     1    11 1
     3     1    15 1
     4     1    16 1
     5     2     3 1
     6     2     4 1
     7     2    17 1
     8     3    18 1
     9     4    19 1
    10     4    20 1
    11     4    21 1
    12     5     6 ar
    13     5    11 1
    14     5    14 ar
    15     6     7 ar
    16     6    12 1
    17     7     8 ar
    18     7    10 1
    19     8     9 ar
    20     9    14 ar
    21     9    25 1
    22    10    22 1
    23    10    23 1
    24    11    13 1
    25    12    13 2
    26    13    24 1
@<TRIPOS>SUBSTRUCTURE
     1 APS         1 TEMP              0 ****  ****    0 ROOT
