@<TRIPOS>MOLECULE
molecule
   35    37     1     0     0
SMALL
bcc


@<TRIPOS>ATOM
      1 C8           0.0000     0.0000     0.0000 c3         1 APT       0.197500
      2 N9           3.7240     0.0000     0.0000 nb         1 APT      -0.675000
      3 C9           3.9850     0.0000     1.3090 ca         1 APT       0.422500
      4 N3           5.2400     0.0070     1.7790 na         1 APT      -0.366700
      5 C10          5.4690     0.0020     3.0780 ca         1 APT       0.762000
      6 N2           6.7780     0.0040     3.5190 nv         1 APT      -0.627900
      7 N1           4.4910     0.0030     3.9810 nb         1 APT      -0.778000
      8 C11          3.2200     0.0020     3.6200 ca         1 APT       0.754300
      9 O6           2.2360     0.0030     4.5480 oh         1 APT      -0.538300
     10 C12          2.9120     0.0010     2.2350 ca         1 APT       0.139000
     11 N7           1.6560     0.0010     1.7950 nb         1 APT      -0.554000
     12 C13          1.4210     0.0010     0.5000 ca         1 APT       0.323300
     13 C14          2.4750     0.0000    -0.4130 ca         1 APT       0.420900
     14 N4          -0.5010    -1.3760    -0.0480 nu         1 APT      -0.843600
     15 C1          -2.2720    -2.9370    -0.5270 ca         1 APT      -0.220000
     16 C2          -3.5500    -3.1900    -0.9530 ca         1 APT      -0.057500
     17 C3          -4.3770    -2.1320    -1.3430 ca         1 APT      -0.128600
     18 C4          -3.8980    -0.8190    -1.2960 ca         1 APT      -0.057500
     19 C5          -2.6210    -0.5730    -0.8630 ca         1 APT      -0.220000
     20 C6          -1.7970    -1.6280    -0.4810 ca         1 APT       0.145600
     21 O2          -6.5480    -1.3800    -2.1780 o          1 APT      -0.813300
     22 O3          -6.1670    -3.5420    -1.8430 o          1 APT      -0.813300
     23 H82         -0.6180     0.5860     0.6690 h1         1 APT       0.070200
     24 H81         -0.0330     0.4310    -0.9930 h1         1 APT       0.070200
     25 H3           6.0100     0.0170     1.1390 hn         1 APT       0.343700
     26 H21          7.2270     0.8680     3.7500 hn         1 APT       0.328200
     27 H22          7.2700    -0.8610     3.6290 hn         1 APT       0.328200
     28 HO6          2.3740     0.7130     5.1530 ho         1 APT       0.477000
     29 H9           2.2630     0.0020    -1.4750 h4         1 APT       0.083100
     30 HN4          0.1010    -2.1360     0.2010 hn         1 APT       0.426800
     31 H1          -1.6300    -3.7560    -0.2240 ha         1 APT       0.102000
     32 H2          -3.9180    -4.2080    -0.9880 ha         1 APT       0.159000
     33 H4          -4.5380     0.0020    -1.5950 ha         1 APT       0.159000
     34 H5          -2.2490     0.4440    -0.8270 ha         1 APT       0.102000
     35 C7          -5.7520    -2.4010    -1.8030 c          1 APT       0.881200
@<TRIPOS>BOND
     1     1    12 1
     2     1    14 1
     3     1    23 1
     4     1    24 1
     5     2     3 ar
     6     2    13 ar
     7     3     4 1
     8     3    10 ar
     9     4     5 2
    10     4    25 1
    11     5     6 1
    12     5     7 ar
    13     6    26 1
    14     6    27 1
    15     7     8 ar
    16     8     9 1
    17     8    10 ar
    18     9    28 1
    19    10    11 ar
    20    11    12 ar
    21    12    13 ar
    22    13    29 1
    23    14    20 1
    24    14    30 1
    25    15    16 ar
    26    15    20 ar
    27    15    31 1
    28    16    17 ar
    29    16    32 1
    30    17    18 ar
    31    17    35 1
    32    18    19 ar
    33    18    33 1
    34    19    20 ar
    35    19    34 1
    36    35    21 1
    37    35    22 1
@<TRIPOS>SUBSTRUCTURE
     1 APT         1 TEMP              0 ****  ****    0 ROOT
