@<TRIPOS>MOLECULE
APV
   42    43     1     0     0
SMALL
bcc


@<TRIPOS>ATOM
      1 C1           0.0000     0.0000     0.0000 c          1 APV       0.956600
      2 C2           1.5060     0.0000     0.0000 c3         1 APV      -0.199500
      3 C3           2.0180     0.0000     1.4420 c3         1 APV      -0.028400
      4 C4           3.5470    -0.0000     1.4430 c3         1 APV      -0.033400
      5 C7           4.0580    -0.0000     2.8840 c3         1 APV      -0.091400
      6 C10          5.5640    -0.0000     2.8840 c          1 APV       0.572100
      7 N11          6.2380    -0.0000     4.0510 ns         1 APV      -0.156900
      8 C12          7.7030    -0.0010     4.0500 cy         1 APV      -0.126300
      9 C13          8.3120    -1.2930     4.5530 c          1 APV       0.644500
     10 N14          1.9960     1.1980    -0.6930 nz         1 APV       0.083400
     11 O15          6.1700    -0.0010     1.8340 o          1 APV      -0.675100
     12 C16          8.3200     0.6580     5.2850 cy         1 APV       0.091800
     13 S17          7.0890     1.2300     6.5240 ss         1 APV      -0.472200
     14 O18          8.4010    -2.4160     4.1030 o          1 APV      -0.553500
     15 O19         -0.6720    -1.1620     0.0010 o          1 APV      -0.824800
     16 O20         -0.6040     1.0460    -0.0000 o          1 APV      -0.824800
     17 N29          8.6880    -0.7050     5.7360 nj         1 APV      -0.137800
     18 C30          7.9570    -1.1680     6.9480 c3         1 APV      -0.106300
     19 C31          8.8700    -2.0750     7.7340 c          1 APV       0.970600
     20 C32          7.5210     0.0170     7.8510 c3         1 APV       0.156400
     21 C33          8.6760     0.5200     8.7190 c3         1 APV       0.205400
     22 O42          8.4190    -2.6830     8.8420 o          1 APV      -0.862800
     23 O32          8.2920     1.7340     9.3660 oh         1 APV      -0.602800
     24 O43         10.0070    -2.2530     7.3660 o          1 APV      -0.862800
     25 H2           1.8670    -0.8850    -0.5110 hx         1 APV       0.089700
     26 H3C1         1.6570    -0.8840     1.9530 hc         1 APV       0.052200
     27 H3C2         1.6570     0.8840     1.9530 hc         1 APV       0.052200
     28 H4C1         3.9080     0.8840     0.9320 hc         1 APV       0.017200
     29 H4C2         3.9080    -0.8850     0.9320 hc         1 APV       0.017200
     30 H7C1         3.6970     0.8840     3.3950 hc         1 APV       0.036700
     31 H7C2         3.6970    -0.8850     3.3950 hc         1 APV       0.036700
     32 H11          5.7380     0.0170     4.9180 hn         1 APV       0.214500
     33 H12          8.1510     0.3420     3.1240 h1         1 APV       0.079700
     34 H141         2.9340     1.0420    -1.0070 hn         1 APV       0.211133
     35 H142         1.4090     1.3920    -1.4800 hn         1 APV       0.211133
     36 H16          9.1650     1.3100     5.0980 h2         1 APV       0.083700
     37 H30          7.0780    -1.7210     6.6400 h1         1 APV       0.037700
     38 H32          6.6510    -0.2410     8.4440 h1         1 APV       0.082700
     39 H331         9.5440     0.7010     8.0970 h1         1 APV       0.030700
     40 H332         8.9170    -0.2270     9.4670 h1         1 APV       0.030700
     41 HA           8.8970     1.9250    10.0630 ho         1 APV       0.383000
     42 H143         1.9800     1.9770    -0.0650 hn         1 APV       0.211133
@<TRIPOS>BOND
     1     1     2 1   
     2     1    15 1   
     3     1    16 1   
     4     2     3 1   
     5     2    10 1   
     6     2    25 1   
     7     3     4 1   
     8     3    26 1   
     9     3    27 1   
    10     4     5 1   
    11     4    28 1   
    12     4    29 1   
    13     5     6 1   
    14     5    30 1   
    15     5    31 1   
    16     6     7 1   
    17     6    11 2   
    18     7     8 1   
    19     7    32 1   
    20     8     9 1   
    21     8    12 1   
    22     8    33 1   
    23     9    14 2   
    24     9    17 1   
    25    10    34 1   
    26    10    35 1   
    27    10    42 1   
    28    12    13 1   
    29    12    17 1   
    30    12    36 1   
    31    13    20 1   
    32    17    18 1   
    33    18    19 1   
    34    18    20 1   
    35    18    37 1   
    36    19    22 1   
    37    19    24 1   
    38    20    21 1   
    39    20    38 1   
    40    21    23 1   
    41    21    39 1   
    42    21    40 1   
    43    23    41 1   
@<TRIPOS>SUBSTRUCTURE
     1 APV         1 TEMP              0 ****  ****    0 ROOT
