@<TRIPOS>MOLECULE
molecule
   17    17     1     0     0
SMALL
bcc


@<TRIPOS>ATOM
      1 N            0.0000     0.0000     0.0000 nz         1 APY      -0.797600
      2 CM           1.4680     0.0000     0.0000 c3         1 APY       0.073500
      3 C2           1.9700     0.0000     1.4210 ca         1 APY       0.337600
      4 C3           3.3310     0.0010     1.6640 ca         1 APY      -0.209300
      5 C4           3.7820     0.0030     2.9740 ca         1 APY      -0.063000
      6 C5           2.8450     0.0030     3.9960 ca         1 APY      -0.209300
      7 C6           1.5010     0.0020     3.6750 ca         1 APY       0.448200
      8 N1           1.1080     0.0060     2.4170 nb         1 APY      -0.748000
      9 HN1         -0.3340     0.8180     0.4700 hn         1 APY       0.462467
     10 HN2         -0.3340    -0.0020    -0.9440 hn         1 APY       0.462467
     11 HM1          1.8290     0.8850    -0.5110 hx         1 APY       0.114700
     12 HM2          1.8290    -0.8850    -0.5110 hx         1 APY       0.114700
     13 H3           4.0260     0.1720     0.8520 ha         1 APY       0.156000
     14 H4           4.8190    -0.2260     3.1900 ha         1 APY       0.172000
     15 H5           3.1580     0.1800     5.0180 ha         1 APY       0.172000
     16 H6           0.7620    -0.0030     4.4670 h4         1 APY       0.050100
     17 HN3         -0.3340    -0.8160     0.4730 hn         1 APY       0.462467
@<TRIPOS>BOND
     1     1     2 1
     2     1     9 1
     3     1    10 1
     4     2     3 1
     5     2    11 1
     6     2    12 1
     7     3     4 ar
     8     3     8 ar
     9     4     5 ar
    10     4    13 1
    11     5     6 ar
    12     5    14 1
    13     6     7 ar
    14     6    15 1
    15     7     8 ar
    16     7    16 1
    17    17     1 1
@<TRIPOS>SUBSTRUCTURE
     1 APY         1 TEMP              0 ****  ****    0 ROOT
