@<TRIPOS>MOLECULE
APZ
   20    21     1     0     0
SMALL
bcc


@<TRIPOS>ATOM
      1 N10        -0.0490    0.1780    0.0080 n         1 APZ     -0.401500
      2 C5          1.3690    0.0180   -0.0130 c         1 APZ      0.686100
      3 O11         1.9360   -0.0300   -1.1180 o         1 APZ     -0.604500
      4 C2          2.0750    0.0140    1.2820 ca        1 APZ     -0.173600
      5 C6          3.4710    0.0240    1.3330 ca        1 APZ     -0.032000
      6 C12         4.1300    0.0010    2.5550 ca        1 APZ     -0.196000
      7 C9          3.4000   -0.0440    3.7690 ca        1 APZ      0.185600
      8 C4          1.9810   -0.0480    3.7090 ca        1 APZ     -0.159000
      9 C1          1.3390   -0.0210    2.4790 ca        1 APZ     -0.062600
     10 C3         -0.1430   -0.0050    2.4160 c         1 APZ      0.677100
     11 O8         -0.8770    0.0560    3.4170 o         1 APZ     -0.600500
     12 N7         -0.7500   -0.1630    1.1390 n         1 APZ     -0.400500
     13 N13         4.0520   -0.1550    4.9870 nh        1 APZ     -0.838200
     14 H10        -0.4950   -0.2330   -0.8030 hn        1 APZ      0.310500
     15 H6          4.0430    0.0510    0.3900 ha        1 APZ      0.163000
     16 H12         5.2310    0.0100    2.5730 ha        1 APZ      0.143000
     17 H4          1.3740   -0.0780    4.6290 ha        1 APZ      0.164000
     18 H7         -1.6790    0.2360    1.0980 hn        1 APZ      0.312500
     19 H131        3.5230    0.0690    5.7970 hn        1 APZ      0.412800
     20 H132        5.0060    0.1170    5.0070 hn        1 APZ      0.412800
@<TRIPOS>BOND
     1    1    2 1
     2    1   12 1
     3    1   14 1
     4    2    3 2
     5    2    4 1
     6    4    5 ar
     7    4    9 ar
     8    5    6 ar
     9    5   15 1
    10    6    7 ar
    11    6   16 1
    12    7    8 ar
    13    7   13 1
    14    8    9 ar
    15    8   17 1
    16    9   10 1
    17   10   11 2
    18   10   12 1
    19   12   18 1
    20   13   19 1
    21   13   20 1
@<TRIPOS>SUBSTRUCTURE
     1 APZ         1 TEMP              0 ****  ****    0 ROOT
