@<TRIPOS>MOLECULE
molecule
   32    33     1     0     0
SMALL
bcc


@<TRIPOS>ATOM
      1 N1           0.0000     0.0000     0.0000 nc         1 AQ1      -0.732300
      2 C4          -0.0400    -0.0020     2.3360 cc         1 AQ1      -0.363200
      3 C5           1.3670    -0.0010     2.3450 c          1 AQ1       0.706700
      4 C6           1.3190     0.0000     0.0000 cd         1 AQ1       0.726800
      5 C7           1.2840    -0.1260    -2.3960 ca         1 AQ1       0.119600
      6 C8           0.0450    -0.7510    -2.4120 ca         1 AQ1      -0.105000
      7 C10         -0.1190    -0.3660    -4.7700 ca         1 AQ1      -0.120000
      8 C12          1.8200     0.3790    -3.5760 ca         1 AQ1       0.094900
      9 C11          1.1160     0.2570    -4.7600 ca         1 AQ1      -0.148000
     10 C9          -0.6530    -0.8700    -3.5980 ca         1 AQ1      -0.126000
     11 N2           1.9910     0.0010    -1.1940 nu         1 AQ1      -0.718600
     12 N            2.0230     0.0000     1.1640 ns         1 AQ1      -0.471400
     13 O            1.9820    -0.0020     3.3980 o          1 AQ1      -0.641500
     14 C3          -0.6910    -0.0010     1.1370 cd         1 AQ1       0.227400
     15 C2          -2.1980    -0.0020     1.1010 c3         1 AQ1      -0.030200
     16 C1          -2.7060     1.4350     0.9660 c3         1 AQ1      -0.079400
     17 C           -4.2360     1.4330     0.9290 c3         1 AQ1      -0.092100
     18 H1          -0.5960    -0.0030     3.2660 ha         1 AQ1       0.169000
     19 H2          -0.3740    -1.1460    -1.4940 ha         1 AQ1       0.184000
     20 H3          -0.6680    -0.4610    -5.6990 ha         1 AQ1       0.138000
     21 H4           1.5320     0.6500    -5.6800 ha         1 AQ1       0.149000
     22 H5          -1.6200    -1.3580    -3.6100 ha         1 AQ1       0.139000
     23 H6           2.9900     0.0640    -1.2060 hn         1 AQ1       0.463800
     24 H7           3.0230     0.0000     1.1450 hn         1 AQ1       0.331500
     25 H8          -2.5810    -0.4360     2.0170 hc         1 AQ1       0.059200
     26 H9          -2.5390    -0.5870     0.2540 hc         1 AQ1       0.059200
     27 H10         -2.3660     2.0190     1.8120 hc         1 AQ1       0.050700
     28 H11         -2.3230     1.8690     0.0500 hc         1 AQ1       0.050700
     29 H12         -4.6190     1.0240     1.8560 hc         1 AQ1       0.035033
     30 H13         -4.5760     0.8270     0.0980 hc         1 AQ1       0.035033
     31 H14         -4.5950     2.4480     0.8060 hc         1 AQ1       0.035033
     32 F            3.0260     0.9880    -3.5660 f          1 AQ1      -0.146900
@<TRIPOS>BOND
     1    17    16 1
     2    16    15 1
     3    15    14 1
     4     2    14 2
     5     2     3 1
     6    13     3 2
     7    14     1 1
     8     3    12 1
     9     1     4 2
    10    12     4 1
    11     4    11 1
    12    11     5 1
    13     6     5 ar
    14     6    10 ar
    15     5     8 ar
    16    10     7 ar
    17     8    32 1
    18     8     9 ar
    19     7     9 ar
    20     2    18 1
    21     6    19 1
    22     7    20 1
    23     9    21 1
    24    10    22 1
    25    11    23 1
    26    12    24 1
    27    15    25 1
    28    15    26 1
    29    16    27 1
    30    16    28 1
    31    17    29 1
    32    17    30 1
    33    17    31 1
@<TRIPOS>SUBSTRUCTURE
     1 AQ1         1 TEMP              0 ****  ****    0 ROOT
