@<TRIPOS>MOLECULE
AQ1
   32    33     1     0     0
SMALL
bcc


@<TRIPOS>ATOM
      1 N1           0.0000     0.0000     0.0000 nc         1 AQ1      -0.637300
      2 C4          -0.0400    -0.0020     2.3360 cd         1 AQ1      -0.349200
      3 C5           1.3670    -0.0010     2.3450 c          1 AQ1       0.614700
      4 C6           1.3190     0.0000     0.0000 cd         1 AQ1       0.376800
      5 C7           1.2840    -0.1260    -2.3960 ca         1 AQ1      -0.031400
      6 C8           0.0450    -0.7510    -2.4120 ca         1 AQ1      -0.095000
      7 C10         -0.1190    -0.3660    -4.7700 ca         1 AQ1      -0.089000
      8 C12          1.8200     0.3790    -3.5760 ca         1 AQ1       0.066900
      9 C11          1.1160     0.2570    -4.7600 ca         1 AQ1      -0.112000
     10 C9          -0.6530    -0.8700    -3.5980 ca         1 AQ1      -0.089000
     11 N2           1.9910     0.0010    -1.1940 nu         1 AQ1      -0.239600
     12 N            2.0230     0.0000     1.1640 ns         1 AQ1      -0.007400
     13 O            1.9820    -0.0020     3.3980 o          1 AQ1      -0.683500
     14 C3          -0.6910    -0.0010     1.1370 cc         1 AQ1       0.190400
     15 C2          -2.1980    -0.0020     1.1010 c3         1 AQ1       0.022800
     16 C1          -2.7060     1.4350     0.9660 c3         1 AQ1      -0.023400
     17 C           -4.2360     1.4330     0.9290 c3         1 AQ1       0.006900
     18 H1          -0.5960    -0.0030     3.2660 ha         1 AQ1       0.150000
     19 H2          -0.3740    -1.1460    -1.4940 ha         1 AQ1       0.162000
     20 H3          -0.6680    -0.4610    -5.6990 ha         1 AQ1       0.108000
     21 H4           1.5320     0.6500    -5.6800 ha         1 AQ1       0.120000
     22 H5          -1.6200    -1.3580    -3.6100 ha         1 AQ1       0.108000
     23 H6           2.9900     0.0640    -1.2060 hn         1 AQ1       0.290800
     24 H7           3.0230     0.0000     1.1450 hn         1 AQ1       0.177500
     25 H8          -2.5810    -0.4360     2.0170 hc         1 AQ1       0.025700
     26 H9          -2.5390    -0.5870     0.2540 hc         1 AQ1       0.025700
     27 H10         -2.3660     2.0190     1.8120 hc         1 AQ1       0.018700
     28 H11         -2.3230     1.8690     0.0500 hc         1 AQ1       0.018700
     29 H12         -4.6190     1.0240     1.8560 hc         1 AQ1       0.001033
     30 H13         -4.5760     0.8270     0.0980 hc         1 AQ1       0.001033
     31 H14         -4.5950     2.4480     0.8060 hc         1 AQ1       0.001033
     32 F            3.0260     0.9880    -3.5660 f          1 AQ1      -0.129900
@<TRIPOS>BOND
     1     1     4 2   
     2     1    14 1   
     3     2     3 1   
     4     2    14 2   
     5     2    18 1   
     6     3    12 1   
     7     3    13 2   
     8     4    11 1   
     9     4    12 1   
    10     5     6 ar  
    11     5     8 ar  
    12     5    11 1   
    13     6    10 ar  
    14     6    19 1   
    15     7     9 ar  
    16     7    10 ar  
    17     7    20 1   
    18     8     9 ar  
    19     8    32 1   
    20     9    21 1   
    21    10    22 1   
    22    11    23 1   
    23    12    24 1   
    24    14    15 1   
    25    15    16 1   
    26    15    25 1   
    27    15    26 1   
    28    16    17 1   
    29    16    27 1   
    30    16    28 1   
    31    17    29 1   
    32    17    30 1   
    33    17    31 1   
@<TRIPOS>SUBSTRUCTURE
     1 AQ1         1 TEMP              0 ****  ****    0 ROOT
