@<TRIPOS>MOLECULE
molecule
   55    58     1     0     0
SMALL
bcc


@<TRIPOS>ATOM
      1 C01          0.0000     0.0000     0.0000 c3         1 AQ2      -0.091600
      2 C02          1.5300     0.0000     0.0000 c3         1 AQ2      -0.016500
      3 C03          2.0400     0.0000     1.4430 c3         1 AQ2      -0.091600
      4 C04          2.0330    -1.2300    -0.7100 cc         1 AQ2      -0.031300
      5 C05          3.1400    -1.2840    -1.4700 cd         1 AQ2      -0.199200
      6 C06          3.2510    -2.6570    -1.9600 ca         1 AQ2      -0.202100
      7 C07          4.1680    -3.3370    -2.7810 cp         1 AQ2       0.019000
      8 C08          3.9370    -4.6890    -3.0360 ca         1 AQ2      -0.270300
      9 C09          2.8290    -5.3010    -2.4780 ca         1 AQ2       0.446200
     10 N01          1.9860    -4.6420    -1.7120 nb         1 AQ2      -0.708000
     11 C10          2.1490    -3.3550    -1.4320 ca         1 AQ2       0.469800
     12 N02          1.4330    -2.4600    -0.6720 na         1 AQ2      -0.274100
     13 C11          5.3420    -2.6400    -3.3590 cp         1 AQ2       0.022000
     14 C12          6.6150    -3.1930    -3.2340 ca         1 AQ2      -0.137000
     15 C13          7.7040    -2.5380    -3.7730 ca         1 AQ2      -0.032500
     16 C14          7.5340    -1.3370    -4.4370 ca         1 AQ2      -0.319500
     17 C15          6.2720    -0.7830    -4.5630 ca         1 AQ2      -0.032500
     18 C16          5.1750    -1.4310    -4.0330 ca         1 AQ2      -0.137000
     19 S01          8.9290    -0.5070    -5.1220 sy         1 AQ2       1.424200
     20 O01          8.5710     0.8640    -5.2210 o          1 AQ2      -0.633300
     21 O02         10.0630    -0.9650    -4.3980 o          1 AQ2      -0.633300
     22 N1           9.1120    -1.0570    -6.6730 n7         1 AQ2      -0.907100
     23 C17          8.0800    -0.7770    -7.6750 c3         1 AQ2       0.229500
     24 C18          8.7440    -0.5610    -9.0330 c3         1 AQ2      -0.081400
     25 C19          7.7210    -0.0200   -10.0350 c3         1 AQ2      -0.199600
     26 S            6.4240    -1.2670   -10.2880 s6         1 AQ2       1.097000
     27 O03          5.3510    -0.6690   -11.0020 o          1 AQ2      -0.610300
     28 O1           7.0240    -2.4510   -10.7970 o          1 AQ2      -0.610300
     29 C20          5.8860    -1.5740    -8.5800 c3         1 AQ2      -0.199600
     30 C1           7.1050    -1.9490    -7.7330 c3         1 AQ2      -0.081400
     31 H011        -0.3610     0.9800     0.2880 hc         1 AQ2       0.040867
     32 H012        -0.3610    -0.7390     0.7050 hc         1 AQ2       0.040867
     33 H013        -0.3610    -0.2410    -0.9930 hc         1 AQ2       0.040867
     34 H02          1.8910     0.8850    -0.5110 hc         1 AQ2       0.073700
     35 H031         1.7090    -0.9020     1.9430 hc         1 AQ2       0.040867
     36 H032         3.1230     0.0360     1.4430 hc         1 AQ2       0.040867
     37 H033         1.6500     0.8660     1.9640 hc         1 AQ2       0.040867
     38 H05          3.9070    -0.5220    -1.5330 ha         1 AQ2       0.161000
     39 HA           0.5970    -2.6760    -0.1660 hn         1 AQ2       0.307700
     40 H08          4.6160    -5.2530    -3.6630 ha         1 AQ2       0.142000
     41 H09          2.6510    -6.3510    -2.6760 h4         1 AQ2       0.026100
     42 H12          6.7490    -4.1340    -2.7140 ha         1 AQ2       0.147500
     43 H16          4.1880    -0.9960    -4.1330 ha         1 AQ2       0.147500
     44 H13          8.6940    -2.9670    -3.6770 ha         1 AQ2       0.150500
     45 H15          6.1440     0.1580    -5.0850 ha         1 AQ2       0.150500
     46 H1           9.9440    -1.5460    -6.9360 hn         1 AQ2       0.459800
     47 H17          7.5410     0.1210    -7.3980 h1         1 AQ2       0.073700
     48 H181         9.5530     0.1510    -8.9270 hc         1 AQ2       0.070700
     49 H182         9.1340    -1.5050    -9.3950 hc         1 AQ2       0.070700
     50 H11C         7.5990    -2.8050    -8.1770 hc         1 AQ2       0.070700
     51 H12C         6.7810    -2.1950    -6.7290 hc         1 AQ2       0.070700
     52 H191         7.2780     0.8880    -9.6440 h1         1 AQ2       0.105450
     53 H192         8.2130     0.1860   -10.9780 h1         1 AQ2       0.105450
     54 H201         5.1720    -2.3890    -8.5670 h1         1 AQ2       0.105450
     55 H202         5.4290    -0.6780    -8.1790 h1         1 AQ2       0.105450
@<TRIPOS>BOND
     1     1     2 1
     2     2     3 1
     3     2     4 1
     4     4     5 2
     5     4    12 1
     6     5     6 1
     7     6     7 ar
     8     6    11 ar
     9     7     8 ar
    10     7    13 1
    11     8     9 ar
    12     9    10 ar
    13    10    11 ar
    14    11    12 1
    15    13    14 ar
    16    13    18 ar
    17    14    15 ar
    18    15    16 ar
    19    16    17 ar
    20    16    19 1
    21    17    18 ar
    22    19    20 2
    23    19    21 2
    24    19    22 1
    25    22    23 1
    26    23    24 1
    27    23    30 1
    28    24    25 1
    29    25    26 1
    30    26    27 2
    31    26    28 2
    32    26    29 1
    33    29    30 1
    34     1    31 1
    35     1    32 1
    36     1    33 1
    37     2    34 1
    38     3    35 1
    39     3    36 1
    40     3    37 1
    41     5    38 1
    42    12    39 1
    43     8    40 1
    44     9    41 1
    45    14    42 1
    46    18    43 1
    47    15    44 1
    48    17    45 1
    49    22    46 1
    50    23    47 1
    51    24    48 1
    52    24    49 1
    53    30    50 1
    54    30    51 1
    55    25    52 1
    56    25    53 1
    57    29    54 1
    58    29    55 1
@<TRIPOS>SUBSTRUCTURE
     1 AQ2         1 TEMP              0 ****  ****    0 ROOT
