@<TRIPOS>MOLECULE
molecule
   48    49     1     0     0
SMALL
bcc


@<TRIPOS>ATOM
      1 O            0.0000     0.0000     0.0000 oh         1 AQ3      -0.494100
      2 C2           1.3600     0.0000     0.0000 ca         1 AQ3       0.018100
      3 C3           2.0540     0.0000     1.1990 ca         1 AQ3      -0.169000
      4 C4           3.4370     0.0020     1.1980 ca         1 AQ3      -0.215000
      5 C5           4.1320     0.0010     0.0030 ca         1 AQ3      -0.107000
      6 C6           3.4460     0.0000    -1.1970 ca         1 AQ3      -0.204000
      7 C1           2.0590    -0.0060    -1.2040 ca         1 AQ3       0.218600
      8 N            1.3640    -0.0120    -2.4190 nu         1 AQ3      -0.770600
      9 O3P         -1.0030     5.8050   -10.1960 o          1 AQ3      -0.911167
     10 P           -0.4280     4.4710    -9.5010 p5         1 AQ3       1.184900
     11 O1P         -0.5840     3.3270   -10.4260 o          1 AQ3      -0.911167
     12 O2P          1.1300     4.6660    -9.1440 o          1 AQ3      -0.911167
     13 O4P         -1.2570     4.1860    -8.1500 os         1 AQ3      -0.593200
     14 C51         -1.9950     3.0570    -6.1670 ca         1 AQ3      -0.139600
     15 C61         -2.8520     4.1270    -5.9880 ca         1 AQ3       0.427200
     16 N1          -3.6670     4.1760    -4.9530 nb         1 AQ3      -0.723000
     17 C41         -2.0010     2.0240    -5.2450 ca         1 AQ3      -0.084300
     18 C31         -2.8780     2.1050    -4.1670 ca         1 AQ3      -0.029200
     19 O3          -2.9160     1.1180    -3.2340 oh         1 AQ3      -0.516100
     20 C21         -3.7000     3.2160    -4.0500 ca         1 AQ3       0.330600
     21 C2A         -4.6540     3.3180    -2.8880 c3         1 AQ3      -0.121400
     22 N2           0.1880     1.1090    -4.7170 n7         1 AQ3      -0.825200
     23 CA           1.1100    -0.0250    -4.8520 c3         1 AQ3       0.035500
     24 C            1.8650     0.0930    -6.1510 c          1 AQ3       0.850600
     25 OXT          2.7690    -0.8390    -6.4890 o          1 AQ3      -0.815800
     26 O1           1.6540     1.0260    -6.8890 o          1 AQ3      -0.815800
     27 CB           2.1010    -0.0190    -3.6860 c3         1 AQ3       0.248800
     28 H1          -0.3140    -0.4950     0.7380 ho         1 AQ3       0.393000
     29 H2           1.5130     0.0000     2.1380 ha         1 AQ3       0.102000
     30 H3           3.9770     0.0020     2.1370 ha         1 AQ3       0.097000
     31 H4           5.2150     0.0040     0.0080 ha         1 AQ3       0.107000
     32 H5           3.9930    -0.0020    -2.1330 ha         1 AQ3       0.155000
     33 H6           0.3640    -0.0490    -2.4230 hn         1 AQ3       0.466800
     34 H9          -0.0410     2.9730    -7.0100 h1         1 AQ3       0.063700
     35 H10         -1.2830     2.1340    -7.9490 h1         1 AQ3       0.063700
     36 H11         -2.8530     4.9370    -6.7080 h4         1 AQ3       0.075100
     37 H12         -3.6530     0.5550    -3.4010 ho         1 AQ3       0.383000
     38 H13         -5.4050     2.5410    -2.9680 hc         1 AQ3       0.024700
     39 H14         -5.1360     4.2880    -2.9000 hc         1 AQ3       0.024700
     40 H15         -4.1080     3.1970    -1.9610 hc         1 AQ3       0.024700
     41 H16         -1.5470    -0.0380    -4.9740 h1         1 AQ3       0.042200
     42 H17         -0.8940     0.6700    -6.4580 h1         1 AQ3       0.042200
     43 H18          0.6100     1.9310    -5.1030 hn         1 AQ3       0.394800
     44 H20          0.5480    -0.9510    -4.8430 h1         1 AQ3       0.039700
     45 H22          2.7240    -0.9040    -3.7360 h1         1 AQ3       0.046200
     46 H23          2.7240     0.8650    -3.7450 h1         1 AQ3       0.046200
     47 C4A         -1.0820     0.8410    -5.4050 c3         1 AQ3       0.212100
     48 C5A         -1.0670     3.0130    -7.3540 c3         1 AQ3       0.239700
@<TRIPOS>BOND
     1    26    24 1
     2    25    24 1
     3    24    23 1
     4    19    18 1
     5    21    20 1
     6    23    22 1
     7    23    27 1
     8    22    47 1
     9     1     2 1
    10    18    20 ar
    11    18    17 ar
    12    20    16 ar
    13     8    27 1
    14     8     7 1
    15    47    17 1
    16    17    14 ar
    17     2     7 ar
    18     2     3 ar
    19    16    15 ar
    20     7     6 ar
    21     3     4 ar
    22    14    15 ar
    23    14    48 1
    24    13    48 1
    25    13    10 1
    26     6     5 ar
    27    11    10 1
    28     9    10 1
    29     4     5 ar
    30    10    12 1
    31     1    28 1
    32     3    29 1
    33     4    30 1
    34     5    31 1
    35     6    32 1
    36     8    33 1
    37    48    34 1
    38    48    35 1
    39    15    36 1
    40    19    37 1
    41    21    38 1
    42    21    39 1
    43    21    40 1
    44    47    41 1
    45    47    42 1
    46    22    43 1
    47    23    44 1
    48    27    45 1
    49    27    46 1
@<TRIPOS>SUBSTRUCTURE
     1 AQ3         1 TEMP              0 ****  ****    0 ROOT
