@<TRIPOS>MOLECULE
AQ3
   48    49     1     0     0
SMALL
bcc


@<TRIPOS>ATOM
      1 O            0.0000     0.0000     0.0000 oh         1 AQ3      -0.469100
      2 C2           1.3600     0.0000     0.0000 ca         1 AQ3       0.027100
      3 C3           2.0540     0.0000     1.1990 ca         1 AQ3      -0.149000
      4 C4           3.4370     0.0020     1.1980 ca         1 AQ3      -0.204000
      5 C5           4.1320     0.0010     0.0030 ca         1 AQ3      -0.077000
      6 C6           3.4460     0.0000    -1.1970 ca         1 AQ3      -0.194000
      7 C1           2.0590    -0.0060    -1.2040 ca         1 AQ3       0.070600
      8 N            1.3640    -0.0120    -2.4190 nu         1 AQ3      -0.356600
      9 O3P         -1.0030     5.8050   -10.1960 o          1 AQ3      -0.753500
     10 P           -0.4280     4.4710    -9.5010 p5         1 AQ3       0.666900
     11 O1P         -0.5840     3.3270   -10.4260 o          1 AQ3      -0.753500
     12 O2P          1.1300     4.6660    -9.1440 o          1 AQ3      -0.753500
     13 O4P         -1.2570     4.1860    -8.1500 os         1 AQ3      -0.485200
     14 C51         -1.9950     3.0570    -6.1670 ca         1 AQ3      -0.124600
     15 C61         -2.8520     4.1270    -5.9880 ca         1 AQ3       0.391200
     16 N1          -3.6670     4.1760    -4.9530 nb         1 AQ3      -0.615000
     17 C41         -2.0010     2.0240    -5.2450 ca         1 AQ3      -0.113300
     18 C31         -2.8780     2.1050    -4.1670 ca         1 AQ3      -0.008200
     19 O3          -2.9160     1.1180    -3.2340 oh         1 AQ3      -0.491100
     20 C21         -3.7000     3.2160    -4.0500 ca         1 AQ3       0.251600
     21 C2A         -4.6540     3.3180    -2.8880 c3         1 AQ3      -0.016400
     22 N2           0.1880     1.1090    -4.7170 n7         1 AQ3      -0.619200
     23 CA           1.1100    -0.0250    -4.8520 c3         1 AQ3      -0.007500
     24 C            1.8650     0.0930    -6.1510 c          1 AQ3       0.935600
     25 OXT          2.7690    -0.8390    -6.4890 o          1 AQ3      -0.858800
     26 O1           1.6540     1.0260    -6.8890 o          1 AQ3      -0.858800
     27 CB           2.1010    -0.0190    -3.6860 c3         1 AQ3       0.168800
     28 H1          -0.3140    -0.4950     0.7380 ho         1 AQ3       0.376000
     29 H2           1.5130     0.0000     2.1380 ha         1 AQ3       0.082000
     30 H3           3.9770     0.0020     2.1370 ha         1 AQ3       0.079000
     31 H4           5.2150     0.0040     0.0080 ha         1 AQ3       0.081000
     32 H5           3.9930    -0.0020    -2.1330 ha         1 AQ3       0.136000
     33 H6           0.3640    -0.0490    -2.4230 hn         1 AQ3       0.317800
     34 H9          -0.0410     2.9730    -7.0100 h1         1 AQ3       0.024700
     35 H10         -1.2830     2.1340    -7.9490 h1         1 AQ3       0.024700
     36 H11         -2.8530     4.9370    -6.7080 h4         1 AQ3       0.035100
     37 H12         -3.6530     0.5550    -3.4010 ho         1 AQ3       0.367000
     38 H13         -5.4050     2.5410    -2.9680 hc         1 AQ3      -0.012300
     39 H14         -5.1360     4.2880    -2.9000 hc         1 AQ3      -0.012300
     40 H15         -4.1080     3.1970    -1.9610 hc         1 AQ3      -0.012300
     41 H16         -1.5470    -0.0380    -4.9740 h1         1 AQ3       0.018200
     42 H17         -0.8940     0.6700    -6.4580 h1         1 AQ3       0.018200
     43 H18          0.6100     1.9310    -5.1030 hn         1 AQ3       0.307800
     44 H20          0.5480    -0.9510    -4.8430 h1         1 AQ3       0.018700
     45 H22          2.7240    -0.9040    -3.7360 h1         1 AQ3       0.024200
     46 H23          2.7240     0.8650    -3.7450 h1         1 AQ3       0.024200
     47 C4A         -1.0820     0.8410    -5.4050 c3         1 AQ3       0.203100
     48 C5A         -1.0670     3.0130    -7.3540 c3         1 AQ3       0.298700
@<TRIPOS>BOND
     1     1     2 1   
     2     1    28 1   
     3     2     3 ar  
     4     2     7 ar  
     5     3     4 ar  
     6     3    29 1   
     7     4     5 ar  
     8     4    30 1   
     9     5     6 ar  
    10     5    31 1   
    11     6     7 ar  
    12     6    32 1   
    13     7     8 1   
    14     8    27 1   
    15     8    33 1   
    16     9    10 1   
    17    10    11 1   
    18    10    12 1   
    19    10    13 1   
    20    13    48 1   
    21    14    15 ar  
    22    14    17 ar  
    23    14    48 1   
    24    15    16 ar  
    25    15    36 1   
    26    16    20 ar  
    27    17    18 ar  
    28    17    47 1   
    29    18    19 1   
    30    18    20 ar  
    31    19    37 1   
    32    20    21 1   
    33    21    38 1   
    34    21    39 1   
    35    21    40 1   
    36    22    23 1   
    37    22    43 1   
    38    22    47 1   
    39    23    24 1   
    40    23    27 1   
    41    23    44 1   
    42    24    25 1   
    43    24    26 1   
    44    27    45 1   
    45    27    46 1   
    46    34    48 1   
    47    35    48 1   
    48    41    47 1   
    49    42    47 1   
@<TRIPOS>SUBSTRUCTURE
     1 AQ3         1 TEMP              0 ****  ****    0 ROOT
