@<TRIPOS>MOLECULE
molecule
   52    54     1     0     0
SMALL
bcc


@<TRIPOS>ATOM
      1 C1          -1.3170     0.0180    -2.2500 c1         1 AQ4      -0.138500
      2 C2          -0.7180     0.0010    -1.2390 cg         1 AQ4      -0.120000
      3 C3           0.0000     0.0000     0.0000 ca         1 AQ4       0.028000
      4 C4           1.3930     0.0000     0.0000 ca         1 AQ4      -0.112000
      5 C5           2.0820     0.0000     1.2040 ca         1 AQ4       0.082600
      6 N1           3.4800     0.0010     1.2090 nu         1 AQ4      -0.676300
      7 C6           4.1750     0.6510     0.2080 ca         1 AQ4       0.622200
      8 C7           5.5840     0.5660     0.1290 ca         1 AQ4      -0.302600
      9 C8           6.3350    -0.1740     1.0510 ca         1 AQ4      -0.217000
     10 C9           7.6940    -0.2250     0.9310 ca         1 AQ4       0.130100
     11 O1           8.4220    -0.9420     1.8270 os         1 AQ4      -0.327900
     12 C10          7.6990    -1.6140     2.8620 c3         1 AQ4       0.145400
     13 C11          8.6800    -2.3620     3.7660 c3         1 AQ4       0.076400
     14 O2           9.5200    -1.4230     4.4400 os         1 AQ4      -0.370600
     15 C12         10.4780    -2.0220     5.3150 c3         1 AQ4       0.113700
     16 C13          8.3480     0.4550    -0.1060 ca         1 AQ4       0.174100
     17 O3           9.7010     0.3880    -0.2060 os         1 AQ4      -0.306900
     18 C14         10.3080     1.1020    -1.2850 c3         1 AQ4       0.086400
     19 C15         11.8250     0.9110    -1.2340 c3         1 AQ4      -0.192600
     20 O4          12.1400    -0.4640    -1.4650 os         1 AQ4      -0.294600
     21 C16         13.5390    -0.7520    -1.4380 c3         1 AQ4       0.108700
     22 C17          7.6330     1.1880    -1.0270 ca         1 AQ4      -0.274300
     23 C18          6.2380     1.2540    -0.9230 ca         1 AQ4       0.463600
     24 N2           5.4950     1.9560    -1.7940 nb         1 AQ4      -0.762000
     25 C19          4.1900     1.9980    -1.6700 ca         1 AQ4       0.704900
     26 N3           3.5360     1.3660    -0.7090 nb         1 AQ4      -0.812000
     27 C20          1.3820    -0.0010     2.4040 ca         1 AQ4      -0.102000
     28 C21          0.0000    -0.0010     2.4040 ca         1 AQ4      -0.123000
     29 C22         -0.6940     0.0050     1.2120 ca         1 AQ4      -0.100000
     30 H1          -1.8600     0.0180    -3.1860 ha         1 AQ4       0.167500
     31 H2           2.0590     0.0390    -0.8530 ha         1 AQ4       0.167000
     32 H3           4.1390    -0.5420     0.6880 hn         1 AQ4       0.446800
     33 H4           6.1270    -0.2240     2.1130 ha         1 AQ4       0.164000
     34 H5           7.0110    -0.8790     3.2630 h1         1 AQ4       0.041200
     35 H6           6.9320    -2.0080     2.2060 h1         1 AQ4       0.041200
     36 H7           8.6730    -3.4440     3.7270 h1         1 AQ4       0.066200
     37 H8           9.4060    -2.3890     2.9620 h1         1 AQ4       0.066200
     38 H9          11.1750    -2.5800     4.7020 h1         1 AQ4       0.035700
     39 H10         10.2230    -2.6630     6.1500 h1         1 AQ4       0.035700
     40 H11         10.8890    -1.1140     5.7390 h1         1 AQ4       0.035700
     41 H12         10.1330     2.1690    -1.2130 h1         1 AQ4       0.053200
     42 H13         10.0380     0.6430    -2.2280 h1         1 AQ4       0.053200
     43 H14         12.1180    -0.0870    -0.9310 h1         1 AQ4       0.123200
     44 H15         11.8780     0.9540    -2.3150 h1         1 AQ4       0.123200
     45 H16         13.8920    -0.6100    -0.4230 h1         1 AQ4       0.072367
     46 H17         13.4630    -1.7960    -1.1580 h1         1 AQ4       0.072367
     47 H18         14.0710    -0.6880    -2.3790 h1         1 AQ4       0.072367
     48 H19          7.9780     1.8830    -1.7840 ha         1 AQ4       0.175000
     49 H20          3.7350     2.2120    -2.6310 h5         1 AQ4       0.058100
     50 H21          2.0060     0.0290     3.2900 ha         1 AQ4       0.145000
     51 H22         -0.3930     0.2550     3.3800 ha         1 AQ4       0.139000
     52 H23         -1.6890     0.4220     1.1040 ha         1 AQ4       0.142000
@<TRIPOS>BOND
     1    14    13 1
     2    14    15 1
     3    13    12 1
     4    12    11 1
     5    11    10 1
     6    19    18 1
     7    19    20 1
     8    10     9 ar
     9    10    16 ar
    10    18    17 1
    11     9     8 ar
    12    17    16 1
    13    16    22 ar
    14     6     5 1
    15     6     7 1
    16    21    20 1
    17    27     5 ar
    18    27    28 ar
    19     5     4 ar
    20    28    29 ar
    21     4     3 ar
    22    29     3 ar
    23     3     2 1
    24     2     1 3
    25     8     7 ar
    26     8    23 ar
    27     7    26 ar
    28    22    23 ar
    29    23    24 ar
    30    26    25 ar
    31    24    25 ar
    32     1    30 1
    33     4    31 1
    34     6    32 1
    35     9    33 1
    36    12    34 1
    37    12    35 1
    38    13    36 1
    39    13    37 1
    40    15    38 1
    41    15    39 1
    42    15    40 1
    43    18    41 1
    44    18    42 1
    45    19    43 1
    46    19    44 1
    47    21    45 1
    48    21    46 1
    49    21    47 1
    50    22    48 1
    51    25    49 1
    52    27    50 1
    53    28    51 1
    54    29    52 1
@<TRIPOS>SUBSTRUCTURE
     1 AQ4         1 TEMP              0 ****  ****    0 ROOT
