@<TRIPOS>MOLECULE
AQ4
   52    54     1     0     0
SMALL
bcc


@<TRIPOS>ATOM
      1 C1         -1.7940   -0.6960   -1.7760 c1        1 AQ4     -0.133500
      2 C2         -1.0670   -0.4160   -0.8660 cg        1 AQ4     -0.125000
      3 C3         -0.2130   -0.0860    0.2050 ca        1 AQ4      0.036000
      4 C4          1.1770   -0.1240    0.0240 ca        1 AQ4     -0.088000
      5 C5          2.0370    0.2080    1.0890 ca        1 AQ4      0.129600
      6 N1          3.4420    0.0950    0.9560 nh        1 AQ4     -0.721300
      7 C6          4.1630    0.7480   -0.0560 ca        1 AQ4      0.688200
      8 C7          5.6210    0.6230   -0.0640 ca        1 AQ4     -0.280600
      9 C8          6.3550   -0.1160    0.8960 ca        1 AQ4     -0.164000
     10 C9          7.7290   -0.1770    0.8310 ca        1 AQ4      0.111100
     11 O1          8.5450   -0.8500    1.7140 os        1 AQ4     -0.306900
     12 C10         7.8770   -1.6770    2.6770 c3        1 AQ4      0.120400
     13 C11         8.9900   -2.3520    3.4720 c3        1 AQ4      0.123400
     14 O2          8.8890   -1.8550    4.8050 os        1 AQ4     -0.425600
     15 C12         9.9700   -2.2670    5.6230 c3        1 AQ4      0.117700
     16 C13         8.4340    0.5090   -0.2210 ca        1 AQ4      0.150100
     17 O3          9.8020    0.3790   -0.1650 os        1 AQ4     -0.306900
     18 C14        10.5350    1.0360   -1.2110 c3        1 AQ4      0.118400
     19 C15        12.0010    0.7100   -0.9430 c3        1 AQ4      0.122400
     20 O4         12.4050   -0.1970   -1.9670 os        1 AQ4     -0.422600
     21 C16        13.7060   -0.7160   -1.7520 c3        1 AQ4      0.117700
     22 C17         7.7400    1.2180   -1.1730 ca        1 AQ4     -0.255300
     23 C18         6.3110    1.2860   -1.1230 ca        1 AQ4      0.447600
     24 N2          5.6350    1.9900   -2.1030 nb        1 AQ4     -0.713000
     25 C19         4.3070    2.0110   -1.9960 ca        1 AQ4      0.664900
     26 N3          3.5220    1.4400   -1.0250 nb        1 AQ4     -0.761000
     27 C20         1.4800    0.5730    2.3350 ca        1 AQ4     -0.162000
     28 C21         0.0990    0.5980    2.5020 ca        1 AQ4     -0.116000
     29 C22        -0.7520    0.2750    1.4500 ca        1 AQ4     -0.120000
     30 H1         -2.4360   -0.9430   -2.5820 ha        1 AQ4      0.167500
     31 H2          1.5840   -0.4110   -0.9590 ha        1 AQ4      0.160000
     32 H3          3.9260    0.0530    1.8300 hn        1 AQ4      0.425800
     33 H4          5.8310   -0.6650    1.6920 ha        1 AQ4      0.141000
     34 H5          7.2390   -1.0410    3.3470 h1        1 AQ4      0.055200
     35 H6          7.2470   -2.4360    2.1460 h1        1 AQ4      0.055200
     36 H7          8.8460   -3.4650    3.4810 h1        1 AQ4      0.049200
     37 H8          9.9960   -2.1060    3.0380 h1        1 AQ4      0.049200
     38 H9         10.0060   -3.3820    5.6960 h1        1 AQ4      0.035033
     39 H10        10.9390   -1.8790    5.2230 h1        1 AQ4      0.035033
     40 H11         9.7490   -1.8150    6.6230 h1        1 AQ4      0.035033
     41 H12        10.2110    0.6420   -2.2100 h1        1 AQ4      0.061200
     42 H13        10.3560    2.1410   -1.1490 h1        1 AQ4      0.061200
     43 H14        12.6240    1.6400   -1.0080 h1        1 AQ4      0.048200
     44 H15        12.1270    0.2390    0.0680 h1        1 AQ4      0.048200
     45 H16        14.4610    0.1080   -1.7330 h1        1 AQ4      0.034367
     46 H17        13.7480   -1.2940   -0.7960 h1        1 AQ4      0.034367
     47 H18        13.8830   -1.3910   -2.6270 h1        1 AQ4      0.034367
     48 H19         8.2590    1.7410   -1.9910 ha        1 AQ4      0.164000
     49 H20         3.7450    2.5660   -2.7770 h5        1 AQ4      0.054100
     50 H21         2.1290    0.8370    3.1830 ha        1 AQ4      0.131000
     51 H22        -0.3230    0.8810    3.4790 ha        1 AQ4      0.136000
     52 H23        -1.8430    0.3030    1.5880 ha        1 AQ4      0.141000
@<TRIPOS>BOND
     1    1    2 3   
     2    1   30 1   
     3    2    3 1   
     4    3    4 ar  
     5    3   29 ar  
     6    4    5 ar  
     7    4   31 1   
     8    5    6 1   
     9    5   27 ar  
    10    6    7 1   
    11    6   32 1   
    12    7    8 ar  
    13    7   26 ar  
    14    8    9 ar  
    15    8   23 ar  
    16    9   10 ar  
    17    9   33 1   
    18   10   11 1   
    19   10   16 ar  
    20   11   12 1   
    21   12   13 1   
    22   12   34 1   
    23   12   35 1   
    24   13   14 1   
    25   13   36 1   
    26   13   37 1   
    27   14   15 1   
    28   15   38 1   
    29   15   39 1   
    30   15   40 1   
    31   16   17 1   
    32   16   22 ar  
    33   17   18 1   
    34   18   19 1   
    35   18   41 1   
    36   18   42 1   
    37   19   20 1   
    38   19   43 1   
    39   19   44 1   
    40   20   21 1   
    41   21   45 1   
    42   21   46 1   
    43   21   47 1   
    44   22   23 ar  
    45   22   48 1   
    46   23   24 ar  
    47   24   25 ar  
    48   25   26 ar  
    49   25   49 1   
    50   27   28 ar  
    51   27   50 1   
    52   28   29 ar  
    53   28   51 1   
    54   29   52 1   
@<TRIPOS>SUBSTRUCTURE
     1 AQ4         1 TEMP              0 ****  ****    0 ROOT
