@<TRIPOS>MOLECULE
molecule
   50    54     1     0     0
SMALL
bcc


@<TRIPOS>ATOM
      1 C4           0.0000     0.0000     0.0000 ca         1 AQ5       0.559100
      2 C5           1.3990     0.0000     0.0000 ca         1 AQ5      -0.382600
      3 C6           2.0550     0.0000     1.2160 ca         1 AQ5       0.452200
      4 N1           1.3440     0.0010     2.3340 nb         1 AQ5      -0.748000
      5 N3          -0.6420     0.0060     1.1680 nb         1 AQ5      -0.702000
      6 CAV         -2.6750    -2.0640     3.1410 c3         1 AQ5      -0.111400
      7 CAW         -3.9830    -1.2680     3.1210 c3         1 AQ5      -0.078400
      8 CAX         -5.0950    -2.1120     3.7500 c3         1 AQ5      -0.126400
      9 CAY         -5.2250    -3.4300     2.9810 c3         1 AQ5       0.152800
     10 NAZ         -3.9500    -4.1540     3.0300 n7         1 AQ5      -0.810200
     11 CAO         -2.8750    -3.3830     2.3910 c3         1 AQ5       0.177200
     12 CAP         -3.2510    -3.0910     0.9370 c3         1 AQ5       0.170800
     13 CAN         -1.5760    -4.1910     2.4250 c3         1 AQ5      -0.071400
     14 CAM         -0.4750    -3.4030     1.7070 c3         1 AQ5      -0.084400
     15 CAL         -0.9210    -3.1100     0.2730 c3         1 AQ5       0.171800
     16 NAK         -2.1680    -2.3360     0.2930 nh         1 AQ5      -0.586000
     17 CAG         -2.5300    -1.9410    -0.9900 ca         1 AQ5       0.192600
     18 CAF         -1.8630    -0.8920    -1.6390 ca         1 AQ5      -0.199100
     19 CAH         -3.5630    -2.5770    -1.6730 ca         1 AQ5      -0.344300
     20 CAI         -3.8920    -2.1530    -2.9480 ca         1 AQ5       0.469200
     21 NAJ         -3.2530    -1.1620    -3.5320 nb         1 AQ5      -0.731000
     22 CAE         -2.2550    -0.5200    -2.9330 ca         1 AQ5       0.476800
     23 NAD         -1.4430     0.5200    -3.3220 na         1 AQ5      -0.271100
     24 CAC         -0.5550     0.8240    -2.3340 cc         1 AQ5      -0.074100
     25 CAB         -0.7520     0.0000    -1.2730 cd         1 AQ5      -0.213000
     26 C2           0.0260     0.0010     2.3030 ca         1 AQ5       0.670900
     27 H1           1.9550    -0.0030    -0.9300 ha         1 AQ5       0.145000
     28 H2           3.1380     0.0000     1.2550 h4         1 AQ5       0.028100
     29 H3          -1.8950    -1.4890     2.6560 hc         1 AQ5       0.055700
     30 H4          -2.3940    -2.2710     4.1660 hc         1 AQ5       0.055700
     31 H5          -3.8580    -0.3540     3.6900 hc         1 AQ5       0.049200
     32 H6          -4.2450    -1.0300     2.0970 hc         1 AQ5       0.049200
     33 H7          -6.0310    -1.5700     3.6980 hc         1 AQ5       0.042200
     34 H8          -4.8480    -2.3210     4.7840 hc         1 AQ5       0.042200
     35 H9          -6.0000    -4.0350     3.4350 h1         1 AQ5       0.053200
     36 H10         -5.4810    -3.2200     1.9490 h1         1 AQ5       0.053200
     37 H11         -3.7070    -4.3390     3.9830 hn         1 AQ5       0.357800
     38 H13         -4.1620    -2.5050     0.9110 h1         1 AQ5       0.052200
     39 H14         -3.4010    -4.0250     0.4090 h1         1 AQ5       0.052200
     40 H15         -1.2840    -4.3620     3.4550 hc         1 AQ5       0.049200
     41 H16         -1.7270    -5.1390     1.9240 hc         1 AQ5       0.049200
     42 H17          0.4350    -3.9900     1.6890 hc         1 AQ5       0.052200
     43 H18         -0.3010    -2.4700     2.2280 hc         1 AQ5       0.052200
     44 H19         -1.0860    -4.0450    -0.2500 h1         1 AQ5       0.042700
     45 H20         -0.1510    -2.5390    -0.2330 h1         1 AQ5       0.042700
     46 H21         -4.1020    -3.3950    -1.2110 ha         1 AQ5       0.148000
     47 H22         -4.6960    -2.6490    -3.4780 h4         1 AQ5       0.024100
     48 H23         -1.4960     0.9880    -4.2060 hn         1 AQ5       0.308700
     49 H24          0.1950     1.6040    -2.3870 h4         1 AQ5       0.174000
     50 H25         -0.5230     0.0030     3.2370 h5         1 AQ5       0.061100
@<TRIPOS>BOND
     1    26     5 ar
     2    26     4 ar
     3     5     1 ar
     4     4     3 ar
     5    24    25 2
     6    24    23 1
     7     1    25 1
     8     1     2 ar
     9     3     2 ar
    10    25    18 1
    11    23    22 1
    12    18    22 ar
    13    18    17 ar
    14    22    21 ar
    15    14    15 1
    16    14    13 1
    17    15    16 1
    18    21    20 ar
    19    17    16 1
    20    17    19 ar
    21    16    12 1
    22    13    11 1
    23    20    19 ar
    24     6    11 1
    25     6     7 1
    26    12    11 1
    27    11    10 1
    28     7     8 1
    29    10     9 1
    30     8     9 1
    31     2    27 1
    32     3    28 1
    33     6    29 1
    34     6    30 1
    35     7    31 1
    36     7    32 1
    37     8    33 1
    38     8    34 1
    39     9    35 1
    40     9    36 1
    41    10    37 1
    42    12    38 1
    43    12    39 1
    44    13    40 1
    45    13    41 1
    46    14    42 1
    47    14    43 1
    48    15    44 1
    49    15    45 1
    50    19    46 1
    51    20    47 1
    52    23    48 1
    53    24    49 1
    54    26    50 1
@<TRIPOS>SUBSTRUCTURE
     1 AQ5         1 TEMP              0 ****  ****    0 ROOT
