@<TRIPOS>MOLECULE
molecule
   37    37     1     0     0
SMALL
bcc


@<TRIPOS>ATOM
      1 C9           0.0000     0.0000     0.0000 c          1 AQ7       0.659100
      2 C8          -2.1430    -0.0130    -1.1850 c3         1 AQ7       0.113000
      3 C10          1.5070     0.0000     0.0000 c3         1 AQ7      -0.160400
      4 C11          2.0170     0.0000     1.4430 c3         1 AQ7      -0.077100
      5 N1          -0.6730    -0.0060    -1.1680 n          1 AQ7      -0.491800
      6 C3          -4.1330     1.0810    -2.1850 c          1 AQ7       0.647100
      7 C4          -2.6340     1.1520    -2.0510 c3         1 AQ7      -0.168700
      8 C5          -1.9920     1.0570    -3.4370 c3         1 AQ7      -0.059400
      9 N           -4.9110     1.1420    -1.0870 ns         1 AQ7      -0.539900
     10 CA          -6.3700     1.0730    -1.2160 c3         1 AQ7      -0.000300
     11 C           -7.0120     1.7500    -0.0330 c          1 AQ7       0.887600
     12 O           -6.3230     2.2390     0.8310 o          1 AQ7      -0.842300
     13 CB          -6.8080    -0.3920    -1.2670 c3         1 AQ7      -0.083100
     14 C6          -0.4720     1.1620    -3.3050 c3         1 AQ7      -0.103400
     15 C7           0.0480    -0.0050    -2.4480 c3         1 AQ7       0.100000
     16 O1          -4.6390     0.9700    -3.2810 o          1 AQ7      -0.647100
     17 O2          -0.6070    -0.0010     1.0490 o          1 AQ7      -0.605100
     18 H3           1.8680    -0.8850    -0.5110 hc         1 AQ7       0.053200
     19 H4           1.8680     0.8850    -0.5110 hc         1 AQ7       0.053200
     20 H5           3.1000    -0.0010     1.4430 hc         1 AQ7       0.040367
     21 H6           1.6550    -0.8840     1.9540 hc         1 AQ7       0.040367
     22 H7           1.6560     0.8850     1.9530 hc         1 AQ7       0.040367
     23 H8          -2.3520     2.0890    -1.5870 hc         1 AQ7       0.073700
     24 H9          -2.2490     0.1070    -3.8890 hc         1 AQ7       0.057700
     25 H10         -2.3550     1.8680    -4.0580 hc         1 AQ7       0.057700
     26 H11         -4.4940     1.2630    -0.1850 hn         1 AQ7       0.331500
     27 H12         -6.6750     1.5730    -2.1280 h1         1 AQ7       0.071700
     28 H14         -7.3000    -0.5890    -2.2120 hc         1 AQ7       0.028033
     29 H15         -7.4960    -0.5910    -0.4540 hc         1 AQ7       0.028033
     30 H16         -5.9400    -1.0320    -1.1700 hc         1 AQ7       0.028033
     31 H17         -0.0200     1.1150    -4.2890 hc         1 AQ7       0.042700
     32 H18         -0.2150     2.1000    -2.8280 hc         1 AQ7       0.042700
     33 H19         -0.1290    -0.9410    -2.9650 h1         1 AQ7       0.041200
     34 H20          1.1080     0.1220    -2.2670 h1         1 AQ7       0.041200
     35 OXT         -8.3490     1.8080     0.0610 o          1 AQ7      -0.842300
     36 H1          -2.4960    -0.9480    -1.6020 h1         1 AQ7       0.071200
     37 H2          -2.5160     0.1050    -0.1750 h1         1 AQ7       0.071200
@<TRIPOS>BOND
     1    14     8 1
     2    14    15 1
     3     8     7 1
     4    15     5 1
     5     3     4 1
     6     3     1 1
     7     7     6 1
     8     7     2 1
     9     5     1 1
    10     5     2 1
    11    16     6 2
    12     6     9 1
    13     1    17 2
    14     9    10 1
    15    10    13 1
    16    10    11 1
    17    11    12 1
    18     2    36 1
    19     2    37 1
    20     3    18 1
    21     3    19 1
    22     4    20 1
    23     4    21 1
    24     4    22 1
    25     7    23 1
    26     8    24 1
    27     8    25 1
    28     9    26 1
    29    10    27 1
    30    13    28 1
    31    13    29 1
    32    13    30 1
    33    14    31 1
    34    14    32 1
    35    15    33 1
    36    15    34 1
    37    11    35 1
@<TRIPOS>SUBSTRUCTURE
     1 AQ7         1 TEMP              0 ****  ****    0 ROOT
