@<TRIPOS>MOLECULE
AQ8
   56    59     1     0     0
SMALL
bcc


@<TRIPOS>ATOM
      1 Cl           0.0000     0.0000     0.0000 cl         1 AQ8      -0.011400
      2 C24          1.7360     0.0000     0.0000 ca         1 AQ8      -0.034600
      3 C8           2.4340     0.0000     1.2070 cp         1 AQ8      -0.018000
      4 C7           1.6980     0.0060     2.4940 cp         1 AQ8      -0.044000
      5 C6           1.7960     1.1000     3.3510 ca         1 AQ8      -0.081000
      6 C5           1.1080     1.1000     4.5480 ca         1 AQ8      -0.109000
      7 C4           0.3210     0.0160     4.8960 ca         1 AQ8      -0.094000
      8 C3           0.2200    -1.0730     4.0490 ca         1 AQ8      -0.100000
      9 C2           0.8990    -1.0800     2.8470 ca         1 AQ8      -0.060300
     10 C1           0.7870    -2.2670     1.9250 c3         1 AQ8      -0.003100
     11 C            1.9590    -3.2190     2.1750 c3         1 AQ8       0.006900
     12 C23          2.4280    -0.0050    -1.1960 ca         1 AQ8      -0.077000
     13 C11          3.8110    -0.0050    -1.1970 ca         1 AQ8      -0.089300
     14 C10          4.5090     0.0010    -0.0020 ca         1 AQ8      -0.095000
     15 C9           3.8280    -0.0050     1.1990 ca         1 AQ8      -0.084000
     16 C12          4.5610    -0.0120    -2.5040 c3         1 AQ8       0.205100
     17 N            4.8050     1.3710    -2.9350 n7         1 AQ8      -0.589200
     18 C13          5.5350     1.4040    -4.2100 c3         1 AQ8       0.141800
     19 C14          5.7690     2.8580    -4.6260 c3         1 AQ8      -0.007700
     20 C15          6.5190     2.8920    -5.9330 cc         1 AQ8       0.186800
     21 N2           6.1060     3.5460    -7.0520 na         1 AQ8       0.269700
     22 C22          7.0610     3.3360    -8.0270 ca         1 AQ8      -0.239200
     23 C16          8.0480     2.5340    -7.4340 ca         1 AQ8       0.034400
     24 N1           7.6580     2.3040    -6.1540 nd         1 AQ8      -0.493100
     25 C21          7.1960     3.7400    -9.3490 ca         1 AQ8      -0.138000
     26 C20          8.3000     3.3510   -10.0770 ca         1 AQ8      -0.039000
     27 C19          9.2810     2.5580    -9.5000 ca         1 AQ8      -0.249000
     28 C17          9.1660     2.1470    -8.1870 ca         1 AQ8       0.217100
     29 O           10.1310     1.3710    -7.6280 os         1 AQ8      -0.287900
     30 C18         11.2400     1.0160    -8.4570 c3         1 AQ8       0.238700
     31 H1           2.4110     1.9490     3.0790 ha         1 AQ8       0.107000
     32 H2           1.1840     1.9500     5.2150 ha         1 AQ8       0.103000
     33 H3          -0.2150     0.0190     5.8380 ha         1 AQ8       0.101000
     34 H4          -0.3990    -1.9180     4.3260 ha         1 AQ8       0.107000
     35 H5          -0.1460    -2.7850     2.1150 hc         1 AQ8       0.028700
     36 H6           0.8090    -1.9290     0.8960 hc         1 AQ8       0.028700
     37 H7           2.4380    -3.4560     1.2330 hc         1 AQ8       0.003700
     38 H8           2.6750    -2.7450     2.8350 hc         1 AQ8       0.003700
     39 H9           1.5930    -4.1300     2.6330 hc         1 AQ8       0.003700
     40 H10          1.8870    -0.0090    -2.1340 ha         1 AQ8       0.120000
     41 H11          5.5920    -0.0010    -0.0100 ha         1 AQ8       0.107000
     42 H12          4.3760    -0.0030     2.1330 ha         1 AQ8       0.113000
     43 H13          5.5080    -0.5220    -2.3740 h1         1 AQ8       0.012700
     44 H14          3.9730    -0.5260    -3.2540 h1         1 AQ8       0.012700
     45 H15          5.3340     1.8510    -2.2350 hn         1 AQ8       0.256800
     46 H17          4.9550     0.8990    -4.9720 h1         1 AQ8       0.020200
     47 H18          6.4890     0.9040    -4.0920 h1         1 AQ8       0.020200
     48 H19          6.3500     3.3630    -3.8630 hc         1 AQ8       0.023700
     49 H20          4.8150     3.3570    -4.7430 hc         1 AQ8       0.023700
     50 H21          5.3340     4.1800    -7.1120 hn         1 AQ8       0.128700
     51 H23          6.4350     4.3590    -9.8070 ha         1 AQ8       0.103000
     52 H24          8.4020     3.6670   -11.1080 ha         1 AQ8       0.100000
     53 H25         10.1440     2.2590   -10.0840 ha         1 AQ8       0.124000
     54 H26         11.7450     1.9150    -8.7880 h1         1 AQ8      -0.002633
     55 H27         10.8850     0.4630    -9.3180 h1         1 AQ8      -0.002633
     56 H28         11.9300     0.4010    -7.8930 h1         1 AQ8      -0.002633
@<TRIPOS>BOND
     1     1     2 1   
     2     2     3 ar  
     3     2    12 ar  
     4     3     4 1   
     5     3    15 ar  
     6     4     5 ar  
     7     4     9 ar  
     8     5     6 ar  
     9     5    31 1   
    10     6     7 ar  
    11     6    32 1   
    12     7     8 ar  
    13     7    33 1   
    14     8     9 ar  
    15     8    34 1   
    16     9    10 1   
    17    10    11 1   
    18    10    35 1   
    19    10    36 1   
    20    11    37 1   
    21    11    38 1   
    22    11    39 1   
    23    12    13 ar  
    24    12    40 1   
    25    13    14 ar  
    26    13    16 1   
    27    14    15 ar  
    28    14    41 1   
    29    15    42 1   
    30    16    17 1   
    31    16    43 1   
    32    16    44 1   
    33    17    18 1   
    34    17    45 1   
    35    18    19 1   
    36    18    46 1   
    37    18    47 1   
    38    19    20 1   
    39    19    48 1   
    40    19    49 1   
    41    20    21 1   
    42    20    24 2   
    43    21    22 1   
    44    21    50 1   
    45    22    23 ar  
    46    22    25 ar  
    47    23    24 1   
    48    23    28 ar  
    49    25    26 ar  
    50    25    51 1   
    51    26    27 ar  
    52    26    52 1   
    53    27    28 ar  
    54    27    53 1   
    55    28    29 1   
    56    29    30 1   
    57    30    54 1   
    58    30    55 1   
    59    30    56 1   
@<TRIPOS>SUBSTRUCTURE
     1 AQ8         1 TEMP              0 ****  ****    0 ROOT
