@<TRIPOS>MOLECULE
AQA
   19    19     1     0     0
SMALL
bcc


@<TRIPOS>ATOM
      1 O6A         0.7040   -0.9410    0.4210 o         1 AQA     -0.796300
      2 C6          1.3860    0.0380    0.0330 c         1 AQA      0.936800
      3 O6B         1.6170    1.1000    0.6610 o         1 AQA     -0.796300
      4 C5          1.9760   -0.0570   -1.3930 ce        1 AQA      0.087900
      5 O5          3.2850   -0.4780   -1.3830 os        1 AQA     -0.344900
      6 C4          1.3060    0.2680   -2.5170 c2        1 AQA     -0.419200
      7 C3          1.9230    0.2580   -3.8680 c3        1 AQA      0.174300
      8 O3          1.4910   -0.8310   -4.6750 oh        1 AQA     -0.618800
      9 C2          3.4590    0.2260   -3.7460 c3        1 AQA      0.058100
     10 O2          3.9730    1.5110   -3.4460 oh        1 AQA     -0.606800
     11 C1          3.8700   -0.7750   -2.6530 c3        1 AQA      0.291900
     12 O1          5.2410   -0.7200   -2.3670 oh        1 AQA     -0.595800
     13 H4          0.2560    0.5760   -2.4580 ha        1 AQA      0.149000
     14 H1          3.6380   -1.8340   -2.9470 h2        1 AQA      0.079700
     15 H3          1.6280    1.1750   -4.4540 h1        1 AQA      0.067700
     16 HC          1.3170   -1.5730   -4.0830 ho        1 AQA      0.406000
     17 H2          3.9360   -0.0580   -4.7220 h1        1 AQA      0.084700
     18 HB          3.5190    1.8100   -2.6440 ho        1 AQA      0.421000
     19 HA          5.4250    0.1660   -2.0230 ho        1 AQA      0.420000
@<TRIPOS>BOND
     1    1    2 1   
     2    2    3 1   
     3    2    4 1   
     4    4    5 1   
     5    4    6 2   
     6    5   11 1   
     7    6    7 1   
     8    6   13 1   
     9    7    8 1   
    10    7    9 1   
    11    7   15 1   
    12    8   16 1   
    13    9   10 1   
    14    9   11 1   
    15    9   17 1   
    16   10   18 1   
    17   11   12 1   
    18   11   14 1   
    19   12   19 1   
@<TRIPOS>SUBSTRUCTURE
     1 AQA         1 TEMP              0 ****  ****    0 ROOT
