@<TRIPOS>MOLECULE
molecule
   19    19     1     0     0
SMALL
bcc


@<TRIPOS>ATOM
      1 O6A          0.0000     0.0000     0.0000 o          1 AQA      -0.818300
      2 C6           1.2150     0.0000     0.0000 c          1 AQA       0.891800
      3 O6B          1.8890     0.0000     1.1670 o          1 AQA      -0.818300
      4 C5           1.9510    -0.0070    -1.2770 ce         1 AQA       0.114900
      5 O5           3.3060    -0.0060    -1.2410 os         1 AQA      -0.308900
      6 C4           1.2580    -0.0170    -2.4060 c2         1 AQA      -0.357200
      7 C3           1.9220    -0.0330    -3.7560 c3         1 AQA       0.183300
      8 O3           1.8700    -1.3540    -4.2970 oh         1 AQA      -0.618800
      9 C2           3.3840     0.4020    -3.6100 c3         1 AQA       0.120100
     10 O2           3.4460     1.8060    -3.3500 oh         1 AQA      -0.565800
     11 C1           3.9990    -0.3750    -2.4360 c3         1 AQA       0.337900
     12 O1           5.3840    -0.0450    -2.3110 oh         1 AQA      -0.598800
     13 H4           0.1760    -0.0140    -2.3550 ha         1 AQA       0.159000
     14 H1           3.8870    -1.4390    -2.6060 h2         1 AQA       0.044700
     15 H3           1.4080     0.6530    -4.4170 h1         1 AQA       0.029700
     16 HC           1.2100    -1.3930    -4.9690 ho         1 AQA       0.389000
     17 H2           3.9240     0.1710    -4.5200 h1         1 AQA       0.027700
     18 HB           3.8890     2.2380    -4.0620 ho         1 AQA       0.385000
     19 HA           5.8330    -0.7380    -1.8560 ho         1 AQA       0.403000
@<TRIPOS>BOND
     1     1     2 1
     2     2     3 1
     3     2     4 1
     4     4     5 1
     5     4     6 2
     6     5    11 1
     7     6     7 1
     8     7     8 1
     9     7     9 1
    10     9    10 1
    11     9    11 1
    12    11    12 1
    13     6    13 1
    14    11    14 1
    15     7    15 1
    16     8    16 1
    17     9    17 1
    18    10    18 1
    19    12    19 1
@<TRIPOS>SUBSTRUCTURE
     1 AQA         1 TEMP              0 ****  ****    0 ROOT
