@<TRIPOS>MOLECULE
AQB
   86    90     1     0     0
SMALL
bcc


@<TRIPOS>ATOM
      1 N1           0.0000     0.0000     0.0000 nb         1 AQB      -0.723000
      2 C2           1.3240     0.0000     0.0000 ca         1 AQB       0.680900
      3 N3           2.0380     0.0000     1.1000 nb         1 AQB      -0.680000
      4 C4           1.4400    -0.0000     2.3010 ca         1 AQB       0.430600
      5 C5           0.0250     0.0000     2.3530 ca         1 AQB      -0.302600
      6 C6          -0.6910     0.0010     1.1320 ca         1 AQB       0.544200
      7 CAC         -5.0680    -7.3390    -5.7920 c3         1 AQB       0.005233
      8 CAD         -2.9100    -6.3720    -6.5990 c3         1 AQB       0.005233
      9 CAE         -4.6470    -7.0970    -8.2430 c3         1 AQB       0.005233
     10 OAG         -2.1650     1.2610     5.2220 o          1 AQB      -0.641100
     11 OAH         -4.0780    -2.5610    -3.9940 o          1 AQB      -0.672100
     12 CAI         -8.7410    -0.7080    -7.9320 ca         1 AQB      -0.026000
     13 CAJ         -8.8340    -0.7440    -9.3100 ca         1 AQB      -0.195000
     14 CAK         -7.8680    -1.5540    -7.2730 ca         1 AQB      -0.215000
     15 CAL         -2.9070    -1.0110    -2.3160 ca         1 AQB      -0.102000
     16 CAM         -4.6540     0.4080    -1.4660 ca         1 AQB      -0.102000
     17 CAN         -2.2270    -0.8900    -1.1200 ca         1 AQB      -0.096500
     18 CAO         -3.9750     0.5280    -0.2700 ca         1 AQB      -0.096500
     19 CAP          1.5260    -0.0000     4.6910 ca         1 AQB      -0.097000
     20 CAR          2.1750    -0.0010     3.4940 ca         1 AQB      -0.139300
     21 CAS         -7.1720    -2.4810    -9.3790 ca         1 AQB      -0.176000
     22 CAT         -4.7610    -4.1060    -5.8770 cc         1 AQB      -0.335300
     23 CAU         -0.6240     0.0000     3.5930 ca         1 AQB      -0.068000
     24 CAV         -3.5610     1.6240     7.4480 c3         1 AQB      -0.022400
     25 CAW         -2.2880     0.7790     7.5290 c3         1 AQB      -0.097400
     26 CAX         -4.2070     1.7060     8.8340 c3         1 AQB       0.150800
     27 NBA         -5.8760    -4.6100    -7.7010 nd         1 AQB      -0.655800
     28 NBD         -5.5290    -1.8030    -5.4950 ns         1 AQB      -0.025100
     29 NBE         -2.0710     0.0010     1.1190 nu         1 AQB      -0.274300
     30 CBG         -4.7810    -1.6490    -4.3840 c          1 AQB       0.555100
     31 CBH         -8.0500    -1.6300   -10.0380 ca         1 AQB       0.072600
     32 CBI         -4.1230    -0.3620    -2.4920 ca         1 AQB      -0.093400
     33 CBJ         -2.7600    -0.1200    -0.0930 ca         1 AQB      -0.026400
     34 CBK          0.1290    -0.0000     4.7500 ca         1 AQB      -0.115400
     35 CBL         -7.0820    -2.4430    -7.9950 ca         1 AQB      -0.077200
     36 CBM         -5.0190    -5.0900    -6.8360 cc         1 AQB       0.390600
     37 CBN         -5.4970    -3.0070    -6.1960 cd         1 AQB      -0.229700
     38 NBR         -5.4280     2.5180     8.7560 n3         1 AQB      -0.543600
     39 NBS         -6.1970    -3.2990    -7.3260 na         1 AQB       0.579300
     40 H2           1.8410    -0.0010    -0.9520 h5         1 AQB      -0.005900
     41 HAA         -6.4600     1.3920    10.1900 h1         1 AQB       0.001700
     42 HAAA        -5.6070     2.8060    10.8240 h1         1 AQB       0.001700
     43 HAAB        -7.1060     3.0140     9.9090 h1         1 AQB       0.001700
     44 HAB         -4.1660     4.1870     8.8880 h1         1 AQB       0.001700
     45 HABA        -5.8940     4.5610     8.8170 h1         1 AQB       0.001700
     46 HABB        -5.0430     4.0330     7.3590 h1         1 AQB       0.001700
     47 HAC         -4.6850    -8.3500    -5.8630 hc         1 AQB       0.007700
     48 HACA        -4.8380    -6.9330    -4.8140 hc         1 AQB       0.007700
     49 HACB        -6.1420    -7.3480    -5.9350 hc         1 AQB       0.007700
     50 HAD         -2.4760    -5.6180    -7.2450 hc         1 AQB       0.007700
     51 HADA        -2.7470    -6.0980    -5.5640 hc         1 AQB       0.007700
     52 HADB        -2.4440    -7.3290    -6.7980 hc         1 AQB       0.007700
     53 HAE         -5.7110    -7.2040    -8.4150 hc         1 AQB       0.007700
     54 HAEA        -4.2350    -6.3920    -8.9550 hc         1 AQB       0.007700
     55 HAEB        -4.1630    -8.0580    -8.3650 hc         1 AQB       0.007700
     56 HNAF        -8.7770    -1.0540   -11.9060 hn         1 AQB       0.268800
     57 HNAA        -7.5790    -2.3060   -11.9540 hn         1 AQB       0.268800
     58 HAI         -9.3530    -0.0160    -7.3660 ha         1 AQB       0.100000
     59 HAJ         -9.5180    -0.0800    -9.8230 ha         1 AQB       0.111000
     60 HAK         -7.7970    -1.5240    -6.1930 ha         1 AQB       0.113000
     61 HAL         -2.4920    -1.6110    -3.1170 ha         1 AQB       0.126000
     62 HAM         -5.6020     0.9130    -1.6030 ha         1 AQB       0.126000
     63 HAN         -1.2790    -1.3960    -0.9820 ha         1 AQB       0.123000
     64 HAO         -4.3900     1.1280     0.5310 ha         1 AQB       0.123000
     65 HAP          2.1000    -0.0010     5.6100 ha         1 AQB       0.104000
     66 HAR          3.2580    -0.0010     3.4650 ha         1 AQB       0.121000
     67 HAS         -6.5600    -3.1740    -9.9440 ha         1 AQB       0.135000
     68 HAT         -4.0930    -4.2020    -5.0290 ha         1 AQB       0.193000
     69 HAU         -1.7060     0.0000     3.6450 ha         1 AQB       0.142000
     70 HAV         -4.2540     1.1670     6.7530 hc         1 AQB       0.037700
     71 HAVA        -3.3110     2.6210     7.1070 hc         1 AQB       0.037700
     72 HAW         -1.5950     1.2350     8.2250 hc         1 AQB       0.028200
     73 HAWA        -2.5380    -0.2180     7.8700 hc         1 AQB       0.028200
     74 HAX         -4.4570     0.7090     9.1750 h1         1 AQB       0.005700
     75 HAXA        -3.5130     2.1630     9.5290 h1         1 AQB       0.005700
     76 HNBB        -0.0690    -0.4300     6.7820 hn         1 AQB       0.166500
     77 HNBC        -5.4110     0.2550    -4.0140 hn         1 AQB       0.157500
     78 HNBE        -2.5790     0.0940     1.9760 hn         1 AQB       0.298800
     79 HNBD        -6.0720    -1.0370    -5.8420 hn         1 AQB       0.173500
     80 NBB         -0.5120    -0.0000     5.9940 ns         1 AQB      -0.032100
     81 NBC         -4.8120    -0.4850    -3.7050 ns         1 AQB      -0.043100
     82 CBF         -1.6520     0.6980     6.1660 c          1 AQB       0.561100
     83 CBT         -4.4130    -6.4690    -6.8680 c3         1 AQB      -0.079300
     84 CAA         -6.2010     2.4270    10.0020 c3         1 AQB       0.181600
     85 CAB         -5.1120     3.9170     8.4340 c3         1 AQB       0.181600
     86 NAF         -8.1440    -1.6670   -11.4310 nv         1 AQB      -0.435200
@<TRIPOS>BOND
     1     1     2 ar  
     2     1     6 ar  
     3     2     3 ar  
     4     2    40 1   
     5     3     4 ar  
     6     4     5 ar  
     7     4    20 ar  
     8     5     6 ar  
     9     5    23 ar  
    10     6    29 1   
    11     7    47 1   
    12     7    48 1   
    13     7    49 1   
    14     7    83 1   
    15     8    50 1   
    16     8    51 1   
    17     8    52 1   
    18     8    83 1   
    19     9    53 1   
    20     9    54 1   
    21     9    55 1   
    22     9    83 1   
    23    10    82 2   
    24    11    30 2   
    25    12    13 ar  
    26    12    14 ar  
    27    12    58 1   
    28    13    31 ar  
    29    13    59 1   
    30    14    35 ar  
    31    14    60 1   
    32    15    17 ar  
    33    15    32 ar  
    34    15    61 1   
    35    16    18 ar  
    36    16    32 ar  
    37    16    62 1   
    38    17    33 ar  
    39    17    63 1   
    40    18    33 ar  
    41    18    64 1   
    42    19    20 ar  
    43    19    34 ar  
    44    19    65 1   
    45    20    66 1   
    46    21    31 ar  
    47    21    35 ar  
    48    21    67 1   
    49    22    36 1   
    50    22    37 2   
    51    22    68 1   
    52    23    34 ar  
    53    23    69 1   
    54    24    25 1   
    55    24    26 1   
    56    24    70 1   
    57    24    71 1   
    58    25    72 1   
    59    25    73 1   
    60    25    82 1   
    61    26    38 1   
    62    26    74 1   
    63    26    75 1   
    64    27    36 2   
    65    27    39 1   
    66    28    30 1   
    67    28    37 1   
    68    28    79 1   
    69    29    33 1   
    70    29    78 1   
    71    30    81 1   
    72    31    86 1   
    73    32    81 1   
    74    34    80 1   
    75    35    39 1   
    76    36    83 1   
    77    37    39 1   
    78    38    84 1   
    79    38    85 1   
    80    41    84 1   
    81    42    84 1   
    82    43    84 1   
    83    44    85 1   
    84    45    85 1   
    85    46    85 1   
    86    56    86 1   
    87    57    86 1   
    88    76    80 1   
    89    77    81 1   
    90    80    82 1   
@<TRIPOS>SUBSTRUCTURE
     1 AQB         1 TEMP              0 ****  ****    0 ROOT
