@<TRIPOS>MOLECULE
molecule
   86    90     1     0     0
SMALL
bcc


@<TRIPOS>ATOM
      1 N1           0.0000     0.0000     0.0000 nb         1 AQB      -0.820000
      2 C2           1.3240     0.0000     0.0000 ca         1 AQB       0.721900
      3 N3           2.0380     0.0000     1.1000 nb         1 AQB      -0.771000
      4 C4           1.4400    -0.0000     2.3010 ca         1 AQB       0.462600
      5 C5           0.0250     0.0000     2.3530 ca         1 AQB      -0.305600
      6 C6          -0.6910     0.0010     1.1320 ca         1 AQB       0.744200
      7 CAC         -5.0680    -7.3390    -5.7920 c3         1 AQB      -0.081433
      8 CAD         -2.9100    -6.3720    -6.5990 c3         1 AQB      -0.081433
      9 CAE         -4.6470    -7.0970    -8.2430 c3         1 AQB      -0.081433
     10 OAG         -2.1650     1.2610     5.2220 o          1 AQB      -0.600100
     11 OAH         -4.0780    -2.5610    -3.9940 o          1 AQB      -0.624100
     12 CAI         -8.7410    -0.7080    -7.9320 ca         1 AQB      -0.061000
     13 CAJ         -8.8340    -0.7440    -9.3100 ca         1 AQB      -0.223000
     14 CAK         -7.8680    -1.5540    -7.2730 ca         1 AQB      -0.237000
     15 CAL         -2.9070    -1.0110    -2.3160 ca         1 AQB      -0.128500
     16 CAM         -4.6540     0.4080    -1.4660 ca         1 AQB      -0.128500
     17 CAN         -2.2270    -0.8900    -1.1200 ca         1 AQB      -0.124500
     18 CAO         -3.9750     0.5280    -0.2700 ca         1 AQB      -0.124500
     19 CAP          1.5260    -0.0000     4.6910 ca         1 AQB      -0.124000
     20 CAR          2.1750    -0.0010     3.4940 ca         1 AQB      -0.164300
     21 CAS         -7.1720    -2.4810    -9.3790 ca         1 AQB      -0.207000
     22 CAT         -4.7610    -4.1060    -5.8770 cc         1 AQB      -0.343300
     23 CAU         -0.6240     0.0000     3.5930 ca         1 AQB      -0.091000
     24 CAV         -3.5610     1.6240     7.4480 c3         1 AQB      -0.066400
     25 CAW         -2.2880     0.7790     7.5290 c3         1 AQB      -0.159400
     26 CAX         -4.2070     1.7060     8.8340 c3         1 AQB       0.159800
     27 NBA         -5.8760    -4.6100    -7.7010 nd         1 AQB      -0.506800
     28 NBD         -5.5290    -1.8030    -5.4950 ns         1 AQB      -0.471100
     29 NBE         -2.0710     0.0010     1.1190 nu         1 AQB      -0.751300
     30 CBG         -4.7810    -1.6490    -4.3840 c          1 AQB       0.788100
     31 CBH         -8.0500    -1.6300   -10.0380 ca         1 AQB       0.224600
     32 CBI         -4.1230    -0.3620    -2.4920 ca         1 AQB       0.050600
     33 CBJ         -2.7600    -0.1200    -0.0930 ca         1 AQB       0.133600
     34 CBK          0.1290    -0.0000     4.7500 ca         1 AQB       0.029600
     35 CBL         -7.0820    -2.4430    -7.9950 ca         1 AQB       0.090800
     36 CBM         -5.0190    -5.0900    -6.8360 cc         1 AQB       0.366600
     37 CBN         -5.4970    -3.0070    -6.1960 cd         1 AQB       0.084300
     38 NBR         -5.4280     2.5180     8.7560 n3         1 AQB      -0.729600
     39 NBS         -6.1970    -3.2990    -7.3260 na         1 AQB       0.115300
     40 H2           1.8410    -0.0010    -0.9520 h5         1 AQB       0.057100
     41 HAA         -6.4600     1.3920    10.1900 h1         1 AQB       0.032867
     42 HAAA        -5.6070     2.8060    10.8240 h1         1 AQB       0.032867
     43 HAAB        -7.1060     3.0140     9.9090 h1         1 AQB       0.032867
     44 HAB         -4.1660     4.1870     8.8880 h1         1 AQB       0.032867
     45 HABA        -5.8940     4.5610     8.8170 h1         1 AQB       0.032867
     46 HABB        -5.0430     4.0330     7.3590 h1         1 AQB       0.032867
     47 HAC         -4.6850    -8.3500    -5.8630 hc         1 AQB       0.039478
     48 HACA        -4.8380    -6.9330    -4.8140 hc         1 AQB       0.039478
     49 HACB        -6.1420    -7.3480    -5.9350 hc         1 AQB       0.039478
     50 HAD         -2.4760    -5.6180    -7.2450 hc         1 AQB       0.039478
     51 HADA        -2.7470    -6.0980    -5.5640 hc         1 AQB       0.039478
     52 HADB        -2.4440    -7.3290    -6.7980 hc         1 AQB       0.039478
     53 HAE         -5.7110    -7.2040    -8.4150 hc         1 AQB       0.039478
     54 HAEA        -4.2350    -6.3920    -8.9550 hc         1 AQB       0.039478
     55 HAEB        -4.1630    -8.0580    -8.3650 hc         1 AQB       0.039478
     56 HNAF        -8.7770    -1.0540   -11.9060 hn         1 AQB       0.433300
     57 HNAA        -7.5790    -2.3060   -11.9540 hn         1 AQB       0.433300
     58 HAI         -9.3530    -0.0160    -7.3660 ha         1 AQB       0.132000
     59 HAJ         -9.5180    -0.0800    -9.8230 ha         1 AQB       0.132000
     60 HAK         -7.7970    -1.5240    -6.1930 ha         1 AQB       0.132000
     61 HAL         -2.4920    -1.6110    -3.1170 ha         1 AQB       0.150500
     62 HAM         -5.6020     0.9130    -1.6030 ha         1 AQB       0.150500
     63 HAN         -1.2790    -1.3960    -0.9820 ha         1 AQB       0.149500
     64 HAO         -4.3900     1.1280     0.5310 ha         1 AQB       0.149500
     65 HAP          2.1000    -0.0010     5.6100 ha         1 AQB       0.133000
     66 HAR          3.2580    -0.0010     3.4650 ha         1 AQB       0.155000
     67 HAS         -6.5600    -3.1740    -9.9440 ha         1 AQB       0.156000
     68 HAT         -4.0930    -4.2020    -5.0290 ha         1 AQB       0.203000
     69 HAU         -1.7060     0.0000     3.6450 ha         1 AQB       0.158000
     70 HAV         -4.2540     1.1670     6.7530 hc         1 AQB       0.066700
     71 HAVA        -3.3110     2.6210     7.1070 hc         1 AQB       0.066700
     72 HAW         -1.5950     1.2350     8.2250 hc         1 AQB       0.061700
     73 HAWA        -2.5380    -0.2180     7.8700 hc         1 AQB       0.061700
     74 HAX         -4.4570     0.7090     9.1750 h1         1 AQB       0.030700
     75 HAXA        -3.5130     2.1630     9.5290 h1         1 AQB       0.030700
     76 HNBB        -0.0690    -0.4300     6.7820 hn         1 AQB       0.323500
     77 HNBC        -5.4110     0.2550    -4.0140 hn         1 AQB       0.317500
     78 HNBE        -2.5790     0.0940     1.9760 hn         1 AQB       0.466800
     79 HNBD        -6.0720    -1.0370    -5.8420 hn         1 AQB       0.328500
     80 NBB         -0.5120    -0.0000     5.9940 ns         1 AQB      -0.476100
     81 NBC         -4.8120    -0.4850    -3.7050 ns         1 AQB      -0.482100
     82 CBF         -1.6520     0.6980     6.1660 c          1 AQB       0.659100
     83 CBT         -4.4130    -6.4690    -6.8680 c3         1 AQB      -0.083300
     84 CAA         -6.2010     2.4270    10.0020 c3         1 AQB       0.150100
     85 CAB         -5.1120     3.9170     8.4340 c3         1 AQB       0.150100
     86 NAF         -8.1440    -1.6670   -11.4310 nv         1 AQB      -0.915200
@<TRIPOS>BOND
     1     1     2 ar
     2     1     6 ar
     3     2     3 ar
     4     3     4 ar
     5     4     5 ar
     6     4    20 ar
     7     5     6 ar
     8     5    23 ar
     9     6    29 1
    10    84    38 1
    11    85    38 1
    12     7    83 1
    13     8    83 1
    14     9    83 1
    15    86    31 1
    16    10    82 2
    17    11    30 2
    18    12    13 ar
    19    12    14 ar
    20    13    31 ar
    21    14    35 ar
    22    15    17 ar
    23    15    32 ar
    24    16    18 ar
    25    16    32 ar
    26    17    33 ar
    27    18    33 ar
    28    19    20 ar
    29    19    34 ar
    30    21    31 ar
    31    21    35 ar
    32    22    36 1
    33    22    37 2
    34    23    34 ar
    35    24    25 1
    36    24    26 1
    37    25    82 1
    38    26    38 1
    39    27    36 2
    40    27    39 1
    41    80    82 1
    42    80    34 1
    43    81    30 1
    44    81    32 1
    45    28    30 1
    46    28    37 1
    47    29    33 1
    48    35    39 1
    49    36    83 1
    50    37    39 1
    51     2    40 1
    52    84    41 1
    53    84    42 1
    54    84    43 1
    55    85    44 1
    56    85    45 1
    57    85    46 1
    58     7    47 1
    59     7    48 1
    60     7    49 1
    61     8    50 1
    62     8    51 1
    63     8    52 1
    64     9    53 1
    65     9    54 1
    66     9    55 1
    67    86    56 1
    68    86    57 1
    69    12    58 1
    70    13    59 1
    71    14    60 1
    72    15    61 1
    73    16    62 1
    74    17    63 1
    75    18    64 1
    76    19    65 1
    77    20    66 1
    78    21    67 1
    79    22    68 1
    80    23    69 1
    81    24    70 1
    82    24    71 1
    83    25    72 1
    84    25    73 1
    85    26    74 1
    86    26    75 1
    87    80    76 1
    88    81    77 1
    89    29    78 1
    90    28    79 1
@<TRIPOS>SUBSTRUCTURE
     1 AQB         1 TEMP              0 ****  ****    0 ROOT
