@<TRIPOS>MOLECULE
molecule
   29    31     1     0     0
SMALL
bcc


@<TRIPOS>ATOM
      1 C4A          0.0000     0.0000     0.0000 ca         1 AQC      -0.052600
      2 C1A          1.4090     0.0000     0.0000 ca         1 AQC      -0.123600
      3 C9           2.1400     0.0000     1.2860 c          1 AQC       0.583300
      4 C8A          1.4080    -0.3070     2.5340 ca         1 AQC      -0.141600
      5 C5A          0.0010    -0.3060     2.5350 ca         1 AQC      -0.144600
      6 C10         -0.7320     0.0010     1.2870 c          1 AQC       0.576300
      7 C4          -0.6930    -0.0070    -1.2050 ca         1 AQC      -0.077000
      8 C3          -0.0010    -0.0090    -2.4030 ca         1 AQC      -0.105000
      9 C2           1.3940    -0.0030    -2.4090 ca         1 AQC      -0.210600
     10 C1           2.1010    -0.0010    -1.2040 ca         1 AQC       0.009000
     11 C8           2.0990    -0.5980     3.7060 ca         1 AQC      -0.068000
     12 C5          -0.6880    -0.5940     3.7090 ca         1 AQC      -0.068000
     13 C7           1.3970    -0.8830     4.8650 ca         1 AQC      -0.100000
     14 C6           0.0140    -0.8810     4.8670 ca         1 AQC      -0.101000
     15 C1L          2.1270    -0.0040    -3.6940 c          1 AQC       0.505700
     16 N2'          1.4460    -0.0120    -4.8580 nz         1 AQC      -0.679400
     17 O9           3.3290     0.2500     1.3160 o          1 AQC      -0.484100
     18 O10         -1.9200     0.2510     1.3190 o          1 AQC      -0.476100
     19 O1L          3.3420     0.0010    -3.7020 o          1 AQC      -0.407100
     20 H4          -1.7760    -0.0120    -1.2060 ha         1 AQC       0.183000
     21 H3          -0.5440    -0.0100    -3.3400 ha         1 AQC       0.115000
     22 H1           3.1840     0.0040    -1.2090 ha         1 AQC       0.191000
     23 H8           3.1820    -0.6010     3.7120 ha         1 AQC       0.164000
     24 H5          -1.7720    -0.5930     3.7170 ha         1 AQC       0.163000
     25 H7           1.9360    -1.1090     5.7780 ha         1 AQC       0.155000
     26 H6          -0.5230    -1.1050     5.7800 ha         1 AQC       0.155000
     27 HN2'         0.8740    -0.8310    -4.9040 hn         1 AQC       0.478800
     28 HN2A         2.0930    -0.0130    -5.6220 hn         1 AQC       0.478800
     29 H2'3         0.8680     0.8030    -4.9110 hn         1 AQC       0.478800
@<TRIPOS>BOND
     1     7     1 ar
     2     1     6 1
     3     1     2 ar
     4    10     2 ar
     5     2     3 1
     6     3     4 1
     7     3    17 2
     8     5     4 ar
     9     4    11 ar
    10     6     5 1
    11     5    12 ar
    12    18     6 2
    13    20     7 1
    14     8     7 ar
    15    21     8 1
    16     8     9 ar
    17    15     9 1
    18     9    10 ar
    19    10    22 1
    20    11    13 ar
    21    11    23 1
    22    24    12 1
    23    12    14 ar
    24    14    13 ar
    25    13    25 1
    26    14    26 1
    27    16    15 1
    28    15    19 2
    29    27    16 1
    30    16    28 1
    31    29    16 1
@<TRIPOS>SUBSTRUCTURE
     1 AQC         1 TEMP              0 ****  ****    0 ROOT
