@<TRIPOS>MOLECULE
AQD
   53    55     1     0     0
SMALL
bcc


@<TRIPOS>ATOM
      1 CAB          0.0000     0.0000     0.0000 c3         1 AQD       0.231700
      2 OAR          1.4280     0.0000     0.0000 os         1 AQD      -0.253900
      3 CAW          2.0450     0.0000     1.2090 ca         1 AQD       0.270100
      4 CAK          1.2950    -0.0060     2.3710 ca         1 AQD      -0.325000
      5 CAV          1.9310    -0.0060     3.6060 ca         1 AQD       0.133600
      6 NAP          1.1770    -0.0120     4.7750 nu         1 AQD      -0.409600
      7 CAA         -0.2860    -0.0190     4.7030 c3         1 AQD       0.197100
      8 CAU          3.3240     0.0000     3.6780 ca         1 AQD      -0.166600
      9 ClA          4.1080    -0.0010     5.2260 cl         1 AQD      -0.032400
     10 CAL          4.0730     0.0040     2.5360 ca         1 AQD       0.007000
     11 CAX          3.4470     0.0000     1.2860 ca         1 AQD      -0.258600
     12 CAS          4.2540     0.0010     0.0550 c          1 AQD       0.614700
     13 OAD          3.7070     0.0010    -1.0320 o          1 AQD      -0.645100
     14 NAQ          5.5990     0.0010     0.1320 ns         1 AQD      -0.220900
     15 CAZ          6.4030     0.0020    -1.0930 c3         1 AQD       0.013700
     16 CAY          7.8360     0.4970    -0.8050 c3         1 AQD       0.114500
     17 CAC          8.1530     0.3360     0.6830 c3         1 AQD      -0.004100
     18 CAM          6.6290    -1.4460    -1.6020 c3         1 AQD      -0.050400
     19 CAN          7.9540    -1.2980    -2.3910 c3         1 AQD       0.147800
     20 NBA          8.7540    -0.3330    -1.6070 n3         1 AQD      -0.533600
     21 CAO          9.5850     0.5000    -2.4880 c3         1 AQD       0.211100
     22 CAT         10.6680    -0.3470    -3.1040 ca         1 AQD      -0.092300
     23 CAI         11.8860    -0.4850    -2.4620 ca         1 AQD      -0.090000
     24 CAG         12.8800    -1.2610    -3.0290 ca         1 AQD      -0.102000
     25 CAF         12.6580    -1.8980    -4.2350 ca         1 AQD      -0.101000
     26 CAH         11.4410    -1.7600    -4.8750 ca         1 AQD      -0.102000
     27 CAJ         10.4440    -0.9880    -4.3070 ca         1 AQD      -0.090000
     28 H1          -0.3610    -0.8930     0.4960 h1         1 AQD      -0.002300
     29 H2          -0.3610     0.8760     0.5250 h1         1 AQD      -0.002300
     30 H3          -0.3610     0.0170    -1.0210 h1         1 AQD      -0.002300
     31 H4           0.2140    -0.0670     2.3180 ha         1 AQD       0.141000
     32 H5           1.6340    -0.0120     5.6650 hn         1 AQD       0.301800
     33 H6          -0.6250     0.8590     4.1670 h1         1 AQD       0.006700
     34 H7          -0.6970    -0.0110     5.7050 h1         1 AQD       0.006700
     35 H8          -0.6190    -0.9090     4.1840 h1         1 AQD       0.006700
     36 H9           5.1550     0.0070     2.5990 ha         1 AQD       0.109000
     37 H10          6.0490    -0.0330     1.0250 hn         1 AQD       0.197500
     38 H11          5.9390     0.6070    -1.8630 h1         1 AQD       0.059700
     39 H12          7.9310     1.5350    -1.0970 h1         1 AQD       0.026700
     40 H13          9.2120     0.4940     0.8460 hc         1 AQD       0.011367
     41 H14          7.8840    -0.6630     1.0040 hc         1 AQD       0.011367
     42 H15          7.5880     1.0630     1.2530 hc         1 AQD       0.011367
     43 H16          5.8230    -1.7550    -2.2570 hc         1 AQD       0.033700
     44 H17          6.7490    -2.1320    -0.7720 hc         1 AQD       0.033700
     45 H18          7.7590    -0.9070    -3.3830 h1         1 AQD       0.020200
     46 H19          8.4650    -2.2510    -2.4480 h1         1 AQD       0.020200
     47 H21         10.0340     1.2990    -1.9100 h1         1 AQD       0.013700
     48 H22          8.9680     0.9240    -3.2710 h1         1 AQD       0.013700
     49 H23         12.0600     0.0140    -1.5170 ha         1 AQD       0.106000
     50 H24         13.8340    -1.3700    -2.5270 ha         1 AQD       0.102000
     51 H25         13.4380    -2.5040    -4.6790 ha         1 AQD       0.101000
     52 H26         11.2660    -2.2600    -5.8200 ha         1 AQD       0.102000
     53 H27          9.4900    -0.8800    -4.8090 ha         1 AQD       0.106000
@<TRIPOS>BOND
     1     1     2 1   
     2     1    28 1   
     3     1    29 1   
     4     1    30 1   
     5     2     3 1   
     6     3     4 ar  
     7     3    11 ar  
     8     4     5 ar  
     9     4    31 1   
    10     5     6 1   
    11     5     8 ar  
    12     6     7 1   
    13     6    32 1   
    14     7    33 1   
    15     7    34 1   
    16     7    35 1   
    17     8     9 1   
    18     8    10 ar  
    19    10    11 ar  
    20    10    36 1   
    21    11    12 1   
    22    12    13 2   
    23    12    14 1   
    24    14    15 1   
    25    14    37 1   
    26    15    16 1   
    27    15    18 1   
    28    15    38 1   
    29    16    17 1   
    30    16    20 1   
    31    16    39 1   
    32    17    40 1   
    33    17    41 1   
    34    17    42 1   
    35    18    19 1   
    36    18    43 1   
    37    18    44 1   
    38    19    20 1   
    39    19    45 1   
    40    19    46 1   
    41    20    21 1   
    42    21    22 1   
    43    21    47 1   
    44    21    48 1   
    45    22    23 ar  
    46    22    27 ar  
    47    23    24 ar  
    48    23    49 1   
    49    24    25 ar  
    50    24    50 1   
    51    25    26 ar  
    52    25    51 1   
    53    26    27 ar  
    54    26    52 1   
    55    27    53 1   
@<TRIPOS>SUBSTRUCTURE
     1 AQD         1 TEMP              0 ****  ****    0 ROOT
