@<TRIPOS>MOLECULE
molecule
   53    55     1     0     0
SMALL
bcc


@<TRIPOS>ATOM
      1 CAB          0.0000     0.0000     0.0000 c3         1 AQD       0.121700
      2 OAR          1.4280     0.0000     0.0000 os         1 AQD      -0.275900
      3 CAW          2.0450     0.0000     1.2090 ca         1 AQD       0.247100
      4 CAK          1.2950    -0.0060     2.3710 ca         1 AQD      -0.319000
      5 CAV          1.9310    -0.0060     3.6060 ca         1 AQD       0.269600
      6 NAP          1.1770    -0.0120     4.7750 nu         1 AQD      -0.810600
      7 CAA         -0.2860    -0.0190     4.7030 c3         1 AQD       0.223100
      8 CAU          3.3240     0.0000     3.6780 ca         1 AQD      -0.099600
      9 ClA          4.1080    -0.0010     5.2260 cl         1 AQD      -0.118400
     10 CAL          4.0730     0.0040     2.5360 ca         1 AQD      -0.017000
     11 CAX          3.4470     0.0000     1.2860 ca         1 AQD      -0.236600
     12 CAS          4.2540     0.0010     0.0550 c          1 AQD       0.683700
     13 OAD          3.7070     0.0010    -1.0320 o          1 AQD      -0.598100
     14 NAQ          5.5990     0.0010     0.1320 ns         1 AQD      -0.586900
     15 CAZ          6.4030     0.0020    -1.0930 c3         1 AQD       0.104700
     16 CAY          7.8360     0.4970    -0.8050 c3         1 AQD       0.147500
     17 CAC          8.1530     0.3360     0.6830 c3         1 AQD      -0.086100
     18 CAM          6.6290    -1.4460    -1.6020 c3         1 AQD      -0.106400
     19 CAN          7.9540    -1.2980    -2.3910 c3         1 AQD       0.149800
     20 NBA          8.7540    -0.3330    -1.6070 n3         1 AQD      -0.710600
     21 CAO          9.5850     0.5000    -2.4880 c3         1 AQD       0.203100
     22 CAT         10.6680    -0.3470    -3.1040 ca         1 AQD      -0.080300
     23 CAI         11.8860    -0.4850    -2.4620 ca         1 AQD      -0.115500
     24 CAG         12.8800    -1.2610    -3.0290 ca         1 AQD      -0.129500
     25 CAF         12.6580    -1.8980    -4.2350 ca         1 AQD      -0.127000
     26 CAH         11.4410    -1.7600    -4.8750 ca         1 AQD      -0.129500
     27 CAJ         10.4440    -0.9880    -4.3070 ca         1 AQD      -0.115500
     28 H1          -0.3610    -0.8930     0.4960 h1         1 AQD       0.042700
     29 H2          -0.3610     0.8760     0.5250 h1         1 AQD       0.042700
     30 H3          -0.3610     0.0170    -1.0210 h1         1 AQD       0.042700
     31 H4           0.2140    -0.0670     2.3180 ha         1 AQD       0.148000
     32 H5           1.6340    -0.0120     5.6650 hn         1 AQD       0.453800
     33 H6          -0.6250     0.8590     4.1670 h1         1 AQD       0.038700
     34 H7          -0.6970    -0.0110     5.7050 h1         1 AQD       0.038700
     35 H8          -0.6190    -0.9090     4.1840 h1         1 AQD       0.038700
     36 H9           5.1550     0.0070     2.5990 ha         1 AQD       0.141000
     37 H10          6.0490    -0.0330     1.0250 hn         1 AQD       0.320500
     38 H11          5.9390     0.6070    -1.8630 h1         1 AQD       0.084700
     39 H12          7.9310     1.5350    -1.0970 h1         1 AQD       0.047700
     40 H13          9.2120     0.4940     0.8460 hc         1 AQD       0.040700
     41 H14          7.8840    -0.6630     1.0040 hc         1 AQD       0.040700
     42 H15          7.5880     1.0630     1.2530 hc         1 AQD       0.040700
     43 H16          5.8230    -1.7550    -2.2570 hc         1 AQD       0.063700
     44 H17          6.7490    -2.1320    -0.7720 hc         1 AQD       0.063700
     45 H18          7.7590    -0.9070    -3.3830 h1         1 AQD       0.047200
     46 H19          8.4650    -2.2510    -2.4480 h1         1 AQD       0.047200
     47 H21         10.0340     1.2990    -1.9100 h1         1 AQD       0.040700
     48 H22          8.9680     0.9240    -3.2710 h1         1 AQD       0.040700
     49 H23         12.0600     0.0140    -1.5170 ha         1 AQD       0.130500
     50 H24         13.8340    -1.3700    -2.5270 ha         1 AQD       0.128500
     51 H25         13.4380    -2.5040    -4.6790 ha         1 AQD       0.128000
     52 H26         11.2660    -2.2600    -5.8200 ha         1 AQD       0.128500
     53 H27          9.4900    -0.8800    -4.8090 ha         1 AQD       0.130500
@<TRIPOS>BOND
     1    24    23 ar
     2    24    25 ar
     3    23    22 ar
     4    25    26 ar
     5    22    21 1
     6    22    27 ar
     7    21    20 1
     8    26    27 ar
     9    17    16 1
    10    16    20 1
    11    16    15 1
    12    20    19 1
    13    19    18 1
    14    15    18 1
    15    15    14 1
    16    14    12 1
    17     1     2 1
    18     2     3 1
    19    12    13 2
    20    12    11 1
    21     3    11 ar
    22     3     4 ar
    23    11    10 ar
    24     4     5 ar
    25    10     8 ar
    26     5     8 ar
    27     5     6 1
    28     8     9 1
    29     6     7 1
    30     1    28 1
    31     1    29 1
    32     1    30 1
    33     4    31 1
    34     6    32 1
    35     7    33 1
    36     7    34 1
    37     7    35 1
    38    10    36 1
    39    14    37 1
    40    15    38 1
    41    16    39 1
    42    17    40 1
    43    17    41 1
    44    17    42 1
    45    18    43 1
    46    18    44 1
    47    19    45 1
    48    19    46 1
    49    21    47 1
    50    21    48 1
    51    23    49 1
    52    24    50 1
    53    25    51 1
    54    26    52 1
    55    27    53 1
@<TRIPOS>SUBSTRUCTURE
     1 AQD         1 TEMP              0 ****  ****    0 ROOT
