@<TRIPOS>MOLECULE
molecule
   48    52     1     0     0
SMALL
bcc


@<TRIPOS>ATOM
      1 NAN          0.0000     0.0000     0.0000 nc         1 AQE      -0.685000
      2 CAM          1.3150     0.0000     0.0000 cc         1 AQE       0.357200
      3 CAL          1.8970     0.0000     1.2020 cd         1 AQE      -0.195400
      4 SAK          0.6330    -0.0010     2.4290 ss         1 AQE      -0.218300
      5 CAJ         -0.5910    -0.0000     1.1620 cd         1 AQE       0.578200
      6 CAA         -2.0500     0.0000     1.3810 cd         1 AQE      -0.193000
      7 CAE         -2.8930    -1.1630     1.7040 ca         1 AQE      -0.204100
      8 CAB         -2.8800     1.0740     1.3280 cc         1 AQE      -0.059100
      9 NAC         -4.1610     0.6770     1.5860 na         1 AQE      -0.274100
     10 CAD         -4.2050    -0.6790     1.8190 ca         1 AQE       0.480800
     11 NAI         -5.1950    -1.5150     2.1100 nb         1 AQE      -0.729000
     12 CAH         -4.9870    -2.8020     2.2970 ca         1 AQE       0.468200
     13 CAG         -3.7210    -3.3530     2.2020 ca         1 AQE      -0.339300
     14 CAF         -2.6420    -2.5280     1.8990 ca         1 AQE       0.185600
     15 NAO         -1.3550    -3.0420     1.7930 nh         1 AQE      -0.600000
     16 CAY         -1.2450    -4.3340     2.4840 c3         1 AQE       0.172800
     17 CAP         -0.9470    -3.1560     0.3880 c3         1 AQE       0.163800
     18 CAQ          0.5200    -3.5870     0.3130 c3         1 AQE      -0.078400
     19 CAR          0.6890    -4.9320     1.0230 c3         1 AQE      -0.120400
     20 CAS          0.2120    -4.7980     2.4720 c3         1 AQE       0.177200
     21 CAX          1.0810    -3.7710     3.2010 c3         1 AQE      -0.063400
     22 CAW          2.5370    -4.2470     3.2000 c3         1 AQE      -0.086400
     23 CAV          2.6140    -5.6250     3.8640 c3         1 AQE      -0.078400
     24 CAU          1.7000    -6.5990     3.1170 c3         1 AQE       0.158800
     25 NAT          0.3210    -6.0980     3.1460 n7         1 AQE      -0.809200
     26 H1           1.8910     0.0000    -0.9180 h4         1 AQE       0.038100
     27 H2           2.9640     0.0000     1.3900 h4         1 AQE       0.177000
     28 H3          -2.5730     2.0900     1.1150 h4         1 AQE       0.180000
     29 H4          -4.9550     1.2860     1.6040 hn         1 AQE       0.309700
     30 H5          -5.8260    -3.4440     2.5330 h4         1 AQE       0.025100
     31 H6          -3.5720    -4.4140     2.3600 ha         1 AQE       0.146000
     32 H7          -1.5790    -4.2230     3.5090 h1         1 AQE       0.047700
     33 H8          -1.8600    -5.0670     1.9760 h1         1 AQE       0.047700
     34 H9          -1.0650    -2.1960    -0.1000 h1         1 AQE       0.054200
     35 H10         -1.5640    -3.8960    -0.1070 h1         1 AQE       0.054200
     36 H11          1.1400    -2.8420     0.7980 hc         1 AQE       0.053700
     37 H12          0.8130    -3.6880    -0.7250 hc         1 AQE       0.053700
     38 H13          1.7340    -5.2170     1.0120 hc         1 AQE       0.046200
     39 H14          0.0970    -5.6840     0.5160 hc         1 AQE       0.046200
     40 H15          1.0140    -2.8160     2.6920 hc         1 AQE       0.060700
     41 H16          0.7370    -3.6670     4.2230 hc         1 AQE       0.060700
     42 H17          2.8920    -4.3180     2.1790 hc         1 AQE       0.040200
     43 H18          3.1470    -3.5440     3.7540 hc         1 AQE       0.040200
     44 H19          3.6340    -5.9860     3.8260 hc         1 AQE       0.047200
     45 H20          2.2910    -5.5460     4.8950 hc         1 AQE       0.047200
     46 H21          2.0300    -6.6840     2.0880 h1         1 AQE       0.031700
     47 H22          1.7400    -7.5690     3.5960 h1         1 AQE       0.031700
     48 H23         -0.2830    -6.7580     2.6970 hn         1 AQE       0.349800
@<TRIPOS>BOND
     1     2     1 1
     2     2     3 2
     3     1     5 2
     4     3     4 1
     5     8     6 2
     6     8     9 1
     7     5     6 1
     8     5     4 1
     9     6     7 1
    10     9    10 1
    11     7    10 ar
    12     7    14 ar
    13    18    17 1
    14    18    19 1
    15    10    11 ar
    16    17    15 1
    17    11    12 ar
    18    14    15 1
    19    14    13 ar
    20    15    16 1
    21    19    20 1
    22    21    20 1
    23    21    22 1
    24    12    13 ar
    25    20    16 1
    26    20    25 1
    27    22    23 1
    28    25    24 1
    29    23    24 1
    30     2    26 1
    31     3    27 1
    32     8    28 1
    33     9    29 1
    34    12    30 1
    35    13    31 1
    36    16    32 1
    37    16    33 1
    38    17    34 1
    39    17    35 1
    40    18    36 1
    41    18    37 1
    42    19    38 1
    43    19    39 1
    44    21    40 1
    45    21    41 1
    46    22    42 1
    47    22    43 1
    48    23    44 1
    49    23    45 1
    50    24    46 1
    51    24    47 1
    52    25    48 1
@<TRIPOS>SUBSTRUCTURE
     1 AQE         1 TEMP              0 ****  ****    0 ROOT
