@<TRIPOS>MOLECULE
AQG
   61    64     1     0     0
SMALL
bcc


@<TRIPOS>ATOM
      1 C4           0.0000     0.0000     0.0000 ca         1 AQG       0.597300
      2 C5           1.4040     0.0000     0.0000 ca         1 AQG      -0.598800
      3 C6           2.0760     0.0000     1.2210 ca         1 AQG       0.736600
      4 C8           0.6550    -0.0010    -2.0670 cc         1 AQG       0.264700
      5 N1           1.3610     0.0010     2.3410 nb         1 AQG      -0.764000
      6 N3          -0.6430     0.0000     1.1730 nb         1 AQG      -0.673000
      7 C2           0.0340     0.0010     2.3070 ca         1 AQG       0.727900
      8 CAA         -8.8840     1.2500     2.4480 c3         1 AQG      -0.022100
      9 CAB         -6.2110    -1.5510     0.3760 c3         1 AQG      -0.022100
     10 CAD         -2.6970    -0.7880     2.4750 ca         1 AQG      -0.138000
     11 CAE         -2.7980     0.4920     4.5170 ca         1 AQG      -0.138000
     12 CAF         -4.0690    -0.8890     2.4660 ca         1 AQG      -0.060500
     13 CAG         -4.1710     0.4040     4.5080 ca         1 AQG      -0.060500
     14 CAI          8.1780     1.1810     2.9820 c3         1 AQG      -0.025400
     15 CAJ          7.7310    -0.1250     3.6400 c3         1 AQG      -0.022400
     16 CAK          7.5300     1.3060     1.6020 c3         1 AQG      -0.022400
     17 CAL         -8.4290    -0.2050     2.3180 c3         1 AQG       0.027500
     18 CAM         -6.2340    -0.1740     1.0450 c3         1 AQG       0.027500
     19 CAN          6.2080    -0.1250     3.7900 c3         1 AQG      -0.020900
     20 CAO          6.0080     1.3070     1.7520 c3         1 AQG      -0.020900
     21 CAP          4.0370     0.0010     2.5610 c3         1 AQG       0.219400
     22 CAW         -6.2920    -0.3890     3.4720 c          1 AQG       0.616700
     23 CAX         -2.0550    -0.0980     3.4980 ca         1 AQG       0.016600
     24 CAY         -4.8190    -0.2930     3.4840 ca         1 AQG      -0.173600
     25 CBD          5.5590    -0.0000     2.4110 c3         1 AQG      -0.062700
     26 N7           1.7870    -0.0010    -1.3270 na         1 AQG       0.312700
     27 N9          -0.3910     0.0050    -1.2880 nd         1 AQG      -0.608700
     28 NBE         -6.9650    -0.2600     2.3120 n          1 AQG      -0.148800
     29 O6           3.4300    -0.0000     1.2670 os         1 AQG      -0.435100
     30 OAC         -6.8960    -0.5850     4.5080 o          1 AQG      -0.652100
     31 H1           0.6220    -0.0060    -3.1500 h5         1 AQG       0.029800
     32 H2          -0.1700     0.0230     4.3740 hn         1 AQG       0.292800
     33 H3          -8.4170     1.6980     3.3160 hc         1 AQG       0.010700
     34 H4          -9.9610     1.2830     2.5610 hc         1 AQG       0.010700
     35 H5          -8.5970     1.7990     1.5600 hc         1 AQG       0.010700
     36 H6          -5.2970    -1.6600    -0.1940 hc         1 AQG       0.010700
     37 H7          -6.2580    -2.3220     1.1360 hc         1 AQG       0.010700
     38 H8          -7.0630    -1.6440    -0.2860 hc         1 AQG       0.010700
     39 H9          -2.1150    -1.2500     1.6860 ha         1 AQG       0.129500
     40 H10         -2.2960     1.0320     5.3100 ha         1 AQG       0.129500
     41 H11         -4.5680    -1.4290     1.6700 ha         1 AQG       0.127000
     42 H12         -4.7490     0.8650     5.3000 ha         1 AQG       0.127000
     43 H13          9.2560     1.1780     2.8740 hc         1 AQG       0.014700
     44 H14          7.8740     2.0170     3.6000 hc         1 AQG       0.014700
     45 H15          8.0310    -0.9610     3.0200 hc         1 AQG       0.014200
     46 H16          8.1890    -0.2110     4.6180 hc         1 AQG       0.014200
     47 H17          7.8460     2.2320     1.1380 hc         1 AQG       0.014200
     48 H18          7.8300     0.4660     0.9860 hc         1 AQG       0.014200
     49 H19         -8.8100    -0.6210     1.3930 h1         1 AQG       0.037450
     50 H20         -8.8090    -0.7780     3.1550 h1         1 AQG       0.037450
     51 H21         -5.2190     0.1520     1.2360 h1         1 AQG       0.037450
     52 H22         -6.7250     0.5370     0.3920 h1         1 AQG       0.037450
     53 H23          5.9070     0.7140     4.4060 hc         1 AQG       0.017950
     54 H24          5.8920    -1.0520     4.2530 hc         1 AQG       0.017950
     55 H25          5.5500     1.3920     0.7740 hc         1 AQG       0.017950
     56 H26          5.7080     2.1430     2.3720 hc         1 AQG       0.017950
     57 H27          3.7280     0.8860     3.1030 h1         1 AQG       0.015700
     58 H28          3.7270    -0.8830     3.1050 h1         1 AQG       0.015700
     59 H29          5.8650    -0.8370     1.7930 hc         1 AQG       0.036700
     60 H30          2.7250    -0.0050    -1.6760 hn         1 AQG       0.131700
     61 N2          -0.6660     0.0020     3.5050 nu         1 AQG      -0.283300
@<TRIPOS>BOND
     1     1     2 ar  
     2     1     6 ar  
     3     1    27 1   
     4     2     3 ar  
     5     2    26 1   
     6     3     5 ar  
     7     3    29 1   
     8     4    26 1   
     9     4    27 2   
    10     4    31 1   
    11     5     7 ar  
    12     6     7 ar  
    13     7    61 1   
    14     8    17 1   
    15     8    33 1   
    16     8    34 1   
    17     8    35 1   
    18     9    18 1   
    19     9    36 1   
    20     9    37 1   
    21     9    38 1   
    22    10    12 ar  
    23    10    23 ar  
    24    10    39 1   
    25    11    13 ar  
    26    11    23 ar  
    27    11    40 1   
    28    12    24 ar  
    29    12    41 1   
    30    13    24 ar  
    31    13    42 1   
    32    14    15 1   
    33    14    16 1   
    34    14    43 1   
    35    14    44 1   
    36    15    19 1   
    37    15    45 1   
    38    15    46 1   
    39    16    20 1   
    40    16    47 1   
    41    16    48 1   
    42    17    28 1   
    43    17    49 1   
    44    17    50 1   
    45    18    28 1   
    46    18    51 1   
    47    18    52 1   
    48    19    25 1   
    49    19    53 1   
    50    19    54 1   
    51    20    25 1   
    52    20    55 1   
    53    20    56 1   
    54    21    25 1   
    55    21    29 1   
    56    21    57 1   
    57    21    58 1   
    58    22    24 1   
    59    22    28 1   
    60    22    30 2   
    61    23    61 1   
    62    25    59 1   
    63    26    60 1   
    64    32    61 1   
@<TRIPOS>SUBSTRUCTURE
     1 AQG         1 TEMP              0 ****  ****    0 ROOT
