@<TRIPOS>MOLECULE
molecule
   92    97     1     0     0
SMALL
bcc


@<TRIPOS>ATOM
      1 N1           0.0000     0.0000     0.0000 nb         1 AQM      -0.820000
      2 C2           1.3240     0.0000     0.0000 ca         1 AQM       0.722900
      3 N3           2.0380     0.0000     1.1000 nb         1 AQM      -0.771000
      4 C4           1.4390     0.0010     2.3010 ca         1 AQM       0.464600
      5 C5           0.0240     0.0010     2.3530 ca         1 AQM      -0.308600
      6 C6          -0.6920    -0.0000     1.1310 ca         1 AQM       0.744200
      7 CAB         -5.0640    -7.3410    -5.7940 c3         1 AQM      -0.081433
      8 CAC         -2.9070    -6.3740    -6.6010 c3         1 AQM      -0.081433
      9 CAD         -4.6420    -7.1000    -8.2450 c3         1 AQM      -0.081433
     10 OAF         -2.1680     1.2610     5.2210 o          1 AQM      -0.601100
     11 CAH         -8.7360    -0.7110    -7.9370 ca         1 AQM      -0.062000
     12 CAI         -8.8300    -0.7460    -9.3140 ca         1 AQM      -0.222000
     13 CAJ         -7.8650    -1.5560    -7.2770 ca         1 AQM      -0.237000
     14 CAK         -2.9060    -1.0120    -2.3180 ca         1 AQM      -0.129000
     15 CAL         -4.6540     0.4060    -1.4690 ca         1 AQM      -0.129000
     16 CAM         -2.2270    -0.8910    -1.1210 ca         1 AQM      -0.124500
     17 CAN         -3.9750     0.5280    -0.2730 ca         1 AQM      -0.124500
     18 CAO          1.5240     0.0000     4.6900 ca         1 AQM      -0.118000
     19 CAQ          2.1740     0.0000     3.4940 ca         1 AQM      -0.165300
     20 CAR         -7.1680    -2.4840    -9.3820 ca         1 AQM      -0.207000
     21 CAS         -4.7580    -4.1080    -5.8790 cc         1 AQM      -0.343300
     22 CAT         -0.6250     0.0010     3.5920 ca         1 AQM      -0.091000
     23 CAU         -2.2920     0.7800     7.5280 c3         1 AQM      -0.138400
     24 CAV         -3.5650     1.6250     7.4460 c3         1 AQM       0.195800
     25 CAW         -6.6960     2.4220     9.7110 c3         1 AQM       0.161300
     26 CAX         -4.5670     2.6750    10.8340 c3         1 AQM       0.161300
     27 CAY         -5.9820     2.4120     8.3580 c3         1 AQM       0.143800
     28 CAZ         -3.8510     2.6660     9.4810 c3         1 AQM       0.143800
     29 NBC         -5.8720    -4.6130    -7.7040 nd         1 AQM      -0.504800
     30 NBG         -2.0720     0.0010     1.1170 nu         1 AQM      -0.752300
     31 CBI         -4.7790    -1.6510    -4.3860 c          1 AQM       0.788100
     32 CBJ         -8.0450    -1.6340   -10.0410 ca         1 AQM       0.224600
     33 CBK         -4.1210    -0.3630    -2.4950 ca         1 AQM       0.051600
     34 CBL         -2.7600    -0.1210    -0.0960 ca         1 AQM       0.133600
     35 CBM          0.1260     0.0010     4.7500 ca         1 AQM       0.027600
     36 CBN         -7.0780    -2.4450    -7.9990 ca         1 AQM       0.090800
     37 CBO         -5.0160    -5.0920    -6.8380 cc         1 AQM       0.366600
     38 CBP         -5.4950    -3.0090    -6.1980 cd         1 AQM       0.083300
     39 NBT         -5.9190     3.2250    10.6670 n3         1 AQM      -0.721600
     40 NBU         -4.6290     1.8630     8.5260 n3         1 AQM      -0.788600
     41 NBV         -6.1930    -3.3020    -7.3290 na         1 AQM       0.115300
     42 H2           1.8410     0.0000    -0.9520 h5         1 AQM       0.058100
     43 HAA         -5.3460     5.2130    11.0040 h1         1 AQM       0.033367
     44 HAAA        -6.8760     5.0130    10.1380 h1         1 AQM       0.033367
     45 HAAB        -5.3430     4.7120     9.3070 h1         1 AQM       0.033367
     46 HAB         -4.8300    -6.9420    -4.8140 hc         1 AQM       0.039589
     47 HABA        -6.1390    -7.3630    -5.9260 hc         1 AQM       0.039589
     48 HABB        -4.6690    -8.3460    -5.8780 hc         1 AQM       0.039589
     49 HAC         -2.4780    -5.6000    -7.2260 hc         1 AQM       0.039589
     50 HACA        -2.8250    -6.0840    -5.5600 hc         1 AQM       0.039589
     51 HACB        -2.3740    -7.3030    -6.7600 hc         1 AQM       0.039589
     52 HAD         -4.2160    -6.4620    -9.0100 hc         1 AQM       0.039589
     53 HADA        -4.1870    -8.0810    -8.2980 hc         1 AQM       0.039589
     54 HADB        -5.7100    -7.1880    -8.4020 hc         1 AQM       0.039589
     55 HNAE        -8.7720    -1.0560   -11.9090 hn         1 AQM       0.433800
     56 HNAA        -7.5730    -2.3070   -11.9580 hn         1 AQM       0.433800
     57 HAH         -9.3490    -0.0190    -7.3720 ha         1 AQM       0.132000
     58 HAI         -9.5150    -0.0820    -9.8280 ha         1 AQM       0.132000
     59 HAJ         -7.7950    -1.5250    -6.1960 ha         1 AQM       0.132000
     60 HAK         -2.4900    -1.6120    -3.1180 ha         1 AQM       0.150500
     61 HAL         -5.6020     0.9110    -1.6070 ha         1 AQM       0.150500
     62 HAM         -1.2790    -1.3960    -0.9830 ha         1 AQM       0.149000
     63 HAN         -4.3910     1.1280     0.5280 ha         1 AQM       0.149000
     64 HAO          2.0970     0.0000     5.6090 ha         1 AQM       0.134000
     65 HAQ          3.2570    -0.0000     3.4650 ha         1 AQM       0.156000
     66 HAR         -6.5550    -3.1760    -9.9470 ha         1 AQM       0.156000
     67 HAS         -4.0900    -4.2030    -5.0310 ha         1 AQM       0.202000
     68 HAT         -1.7070     0.0010     3.6430 ha         1 AQM       0.157000
     69 HAU         -2.5550    -0.2490     7.7410 hc         1 AQM       0.069200
     70 HAUA        -1.6550     1.1610     8.3160 hc         1 AQM       0.069200
     71 HAV         -4.2010     1.2440     6.6570 h1         1 AQM       0.040700
     72 HAVA        -3.3020     2.6540     7.2330 h1         1 AQM       0.040700
     73 HAW         -6.7830     1.4070    10.0800 h1         1 AQM       0.061200
     74 HAWA        -7.6820     2.8550     9.5950 h1         1 AQM       0.061200
     75 HAX         -4.6340     1.6630    11.2130 h1         1 AQM       0.061200
     76 HAXA        -4.0110     3.2910    11.5310 h1         1 AQM       0.061200
     77 HAY         -5.9150     3.4240     7.9780 h1         1 AQM       0.035200
     78 HAYA        -6.5370     1.7950     7.6620 h1         1 AQM       0.035200
     79 HAZ         -3.7640     3.6800     9.1120 h1         1 AQM       0.035200
     80 HAZA        -2.8650     2.2320     9.5970 h1         1 AQM       0.035200
     81 HNBD        -0.1500    -0.5530     6.7440 hn         1 AQM       0.327500
     82 HNBE        -5.4100     0.2530    -4.0170 hn         1 AQM       0.317500
     83 HNBG        -2.5810     0.0810     1.9760 hn         1 AQM       0.465800
     84 HNBF        -6.0810    -1.0430    -5.8370 hn         1 AQM       0.328500
     85 NBD         -0.5150    -0.0010     5.9940 ns         1 AQM      -0.477100
     86 NBE         -4.8100    -0.4870    -3.7080 ns         1 AQM      -0.482100
     87 CBH         -1.6560     0.6980     6.1640 c          1 AQM       0.667100
     88 CAA         -5.8680     4.6330    10.2520 c3         1 AQM       0.142100
     89 OAG         -4.0760    -2.5630    -3.9960 o          1 AQM      -0.624100
     90 NBF         -5.5270    -1.8040    -5.4980 ns         1 AQM      -0.471100
     91 CBW         -4.4090    -6.4710    -6.8690 c3         1 AQM      -0.082300
     92 NAE         -8.1390    -1.6690   -11.4350 nv         1 AQM      -0.915200
@<TRIPOS>BOND
     1     1     2 ar
     2     1     6 ar
     3     2     3 ar
     4     3     4 ar
     5     4     5 ar
     6     4    19 ar
     7     5     6 ar
     8     5    22 ar
     9     6    30 1
    10    88    39 1
    11     7    91 1
    12     8    91 1
    13     9    91 1
    14    92    32 1
    15    10    87 2
    16    89    31 2
    17    11    12 ar
    18    11    13 ar
    19    12    32 ar
    20    13    36 ar
    21    14    16 ar
    22    14    33 ar
    23    15    17 ar
    24    15    33 ar
    25    16    34 ar
    26    17    34 ar
    27    18    19 ar
    28    18    35 ar
    29    20    32 ar
    30    20    36 ar
    31    21    37 1
    32    21    38 2
    33    22    35 ar
    34    23    24 1
    35    23    87 1
    36    24    40 1
    37    25    27 1
    38    25    39 1
    39    26    28 1
    40    26    39 1
    41    27    40 1
    42    28    40 1
    43    29    37 2
    44    29    41 1
    45    85    87 1
    46    85    35 1
    47    86    31 1
    48    86    33 1
    49    90    31 1
    50    90    38 1
    51    30    34 1
    52    36    41 1
    53    37    91 1
    54    38    41 1
    55     2    42 1
    56    88    43 1
    57    88    44 1
    58    88    45 1
    59     7    46 1
    60     7    47 1
    61     7    48 1
    62     8    49 1
    63     8    50 1
    64     8    51 1
    65     9    52 1
    66     9    53 1
    67     9    54 1
    68    92    55 1
    69    92    56 1
    70    11    57 1
    71    12    58 1
    72    13    59 1
    73    14    60 1
    74    15    61 1
    75    16    62 1
    76    17    63 1
    77    18    64 1
    78    19    65 1
    79    20    66 1
    80    21    67 1
    81    22    68 1
    82    23    69 1
    83    23    70 1
    84    24    71 1
    85    24    72 1
    86    25    73 1
    87    25    74 1
    88    26    75 1
    89    26    76 1
    90    27    77 1
    91    27    78 1
    92    28    79 1
    93    28    80 1
    94    85    81 1
    95    86    82 1
    96    30    83 1
    97    90    84 1
@<TRIPOS>SUBSTRUCTURE
     1 AQM         1 TEMP              0 ****  ****    0 ROOT
