@<TRIPOS>MOLECULE
AQM
   92    97     1     0     0
SMALL
bcc


@<TRIPOS>ATOM
      1 N1           0.0000     0.0000     0.0000 nb         1 AQM      -0.723000
      2 C2           1.3240     0.0000     0.0000 ca         1 AQM       0.682900
      3 N3           2.0380     0.0000     1.1000 nb         1 AQM      -0.680000
      4 C4           1.4390     0.0010     2.3010 ca         1 AQM       0.433600
      5 C5           0.0240     0.0010     2.3530 ca         1 AQM      -0.304600
      6 C6          -0.6920    -0.0000     1.1310 ca         1 AQM       0.545200
      7 CAB         -5.0640    -7.3410    -5.7940 c3         1 AQM       0.005233
      8 CAC         -2.9070    -6.3740    -6.6010 c3         1 AQM       0.005233
      9 CAD         -4.6420    -7.1000    -8.2450 c3         1 AQM       0.005233
     10 OAF         -2.1680     1.2610     5.2210 o          1 AQM      -0.645100
     11 CAH         -8.7360    -0.7110    -7.9370 ca         1 AQM      -0.026000
     12 CAI         -8.8300    -0.7460    -9.3140 ca         1 AQM      -0.194000
     13 CAJ         -7.8650    -1.5560    -7.2770 ca         1 AQM      -0.215000
     14 CAK         -2.9060    -1.0120    -2.3180 ca         1 AQM      -0.101500
     15 CAL         -4.6540     0.4060    -1.4690 ca         1 AQM      -0.101500
     16 CAM         -2.2270    -0.8910    -1.1210 ca         1 AQM      -0.096500
     17 CAN         -3.9750     0.5280    -0.2730 ca         1 AQM      -0.096500
     18 CAO          1.5240     0.0000     4.6900 ca         1 AQM      -0.091000
     19 CAQ          2.1740     0.0000     3.4940 ca         1 AQM      -0.140300
     20 CAR         -7.1680    -2.4840    -9.3820 ca         1 AQM      -0.175000
     21 CAS         -4.7580    -4.1080    -5.8790 cc         1 AQM      -0.336300
     22 CAT         -0.6250     0.0010     3.5920 ca         1 AQM      -0.067000
     23 CAU         -2.2920     0.7800     7.5280 c3         1 AQM      -0.070400
     24 CAV         -3.5650     1.6250     7.4460 c3         1 AQM       0.179800
     25 CAW         -6.6960     2.4220     9.7110 c3         1 AQM       0.155800
     26 CAX         -4.5670     2.6750    10.8340 c3         1 AQM       0.155800
     27 CAY         -5.9820     2.4120     8.3580 c3         1 AQM       0.124800
     28 CAZ         -3.8510     2.6660     9.4810 c3         1 AQM       0.124800
     29 NBC         -5.8720    -4.6130    -7.7040 nd         1 AQM      -0.654800
     30 NBG         -2.0720     0.0010     1.1170 nu         1 AQM      -0.275300
     31 CBI         -4.7790    -1.6510    -4.3860 c          1 AQM       0.555100
     32 CBJ         -8.0450    -1.6340   -10.0410 ca         1 AQM       0.072600
     33 CBK         -4.1210    -0.3630    -2.4950 ca         1 AQM      -0.092400
     34 CBL         -2.7600    -0.1210    -0.0960 ca         1 AQM      -0.027400
     35 CBM          0.1260     0.0010     4.7500 ca         1 AQM      -0.119400
     36 CBN         -7.0780    -2.4450    -7.9990 ca         1 AQM      -0.076200
     37 CBO         -5.0160    -5.0920    -6.8380 cc         1 AQM       0.390600
     38 CBP         -5.4950    -3.0090    -6.1980 cd         1 AQM      -0.229700
     39 NBT         -5.9190     3.2250    10.6670 n3         1 AQM      -0.542600
     40 NBU         -4.6290     1.8630     8.5260 n3         1 AQM      -0.576600
     41 NBV         -6.1930    -3.3020    -7.3290 na         1 AQM       0.579300
     42 H2           1.8410     0.0000    -0.9520 h5         1 AQM      -0.005900
     43 HAA         -5.3460     5.2130    11.0040 h1         1 AQM       0.004700
     44 HAAA        -6.8760     5.0130    10.1380 h1         1 AQM       0.004700
     45 HAAB        -5.3430     4.7120     9.3070 h1         1 AQM       0.004700
     46 HAB         -4.8300    -6.9420    -4.8140 hc         1 AQM       0.007811
     47 HABA        -6.1390    -7.3630    -5.9260 hc         1 AQM       0.007811
     48 HABB        -4.6690    -8.3460    -5.8780 hc         1 AQM       0.007811
     49 HAC         -2.4780    -5.6000    -7.2260 hc         1 AQM       0.007811
     50 HACA        -2.8250    -6.0840    -5.5600 hc         1 AQM       0.007811
     51 HACB        -2.3740    -7.3030    -6.7600 hc         1 AQM       0.007811
     52 HAD         -4.2160    -6.4620    -9.0100 hc         1 AQM       0.007811
     53 HADA        -4.1870    -8.0810    -8.2980 hc         1 AQM       0.007811
     54 HADB        -5.7100    -7.1880    -8.4020 hc         1 AQM       0.007811
     55 HNAE        -8.7720    -1.0560   -11.9090 hn         1 AQM       0.268800
     56 HNAA        -7.5730    -2.3070   -11.9580 hn         1 AQM       0.268800
     57 HAH         -9.3490    -0.0190    -7.3720 ha         1 AQM       0.100000
     58 HAI         -9.5150    -0.0820    -9.8280 ha         1 AQM       0.112000
     59 HAJ         -7.7950    -1.5250    -6.1960 ha         1 AQM       0.113000
     60 HAK         -2.4900    -1.6120    -3.1180 ha         1 AQM       0.126500
     61 HAL         -5.6020     0.9110    -1.6070 ha         1 AQM       0.126500
     62 HAM         -1.2790    -1.3960    -0.9830 ha         1 AQM       0.122500
     63 HAN         -4.3910     1.1280     0.5280 ha         1 AQM       0.122500
     64 HAO          2.0970     0.0000     5.6090 ha         1 AQM       0.104000
     65 HAQ          3.2570    -0.0000     3.4650 ha         1 AQM       0.122000
     66 HAR         -6.5550    -3.1760    -9.9470 ha         1 AQM       0.135000
     67 HAS         -4.0900    -4.2030    -5.0310 ha         1 AQM       0.194000
     68 HAT         -1.7070     0.0010     3.6430 ha         1 AQM       0.140000
     69 HAU         -2.5550    -0.2490     7.7410 hc         1 AQM       0.032700
     70 HAUA        -1.6550     1.1610     8.3160 hc         1 AQM       0.032700
     71 HAV         -4.2010     1.2440     6.6570 h1         1 AQM       0.011200
     72 HAVA        -3.3020     2.6540     7.2330 h1         1 AQM       0.011200
     73 HAW         -6.7830     1.4070    10.0800 h1         1 AQM       0.027950
     74 HAWA        -7.6820     2.8550     9.5950 h1         1 AQM       0.027950
     75 HAX         -4.6340     1.6630    11.2130 h1         1 AQM       0.027950
     76 HAXA        -4.0110     3.2910    11.5310 h1         1 AQM       0.027950
     77 HAY         -5.9150     3.4240     7.9780 h1         1 AQM       0.014700
     78 HAYA        -6.5370     1.7950     7.6620 h1         1 AQM       0.014700
     79 HAZ         -3.7640     3.6800     9.1120 h1         1 AQM       0.014700
     80 HAZA        -2.8650     2.2320     9.5970 h1         1 AQM       0.014700
     81 HNBD        -0.1500    -0.5530     6.7440 hn         1 AQM       0.169500
     82 HNBE        -5.4100     0.2530    -4.0170 hn         1 AQM       0.158500
     83 HNBG        -2.5810     0.0810     1.9760 hn         1 AQM       0.297800
     84 HNBF        -6.0810    -1.0430    -5.8370 hn         1 AQM       0.173500
     85 NBD         -0.5150    -0.0010     5.9940 ns         1 AQM      -0.031100
     86 NBE         -4.8100    -0.4870    -3.7080 ns         1 AQM      -0.043100
     87 CBH         -1.6560     0.6980     6.1640 c          1 AQM       0.567100
     88 CAA         -5.8680     4.6330    10.2520 c3         1 AQM       0.168100
     89 OAG         -4.0760    -2.5630    -3.9960 o          1 AQM      -0.672100
     90 NBF         -5.5270    -1.8040    -5.4980 ns         1 AQM      -0.025100
     91 CBW         -4.4090    -6.4710    -6.8690 c3         1 AQM      -0.079300
     92 NAE         -8.1390    -1.6690   -11.4350 nv         1 AQM      -0.436200
@<TRIPOS>BOND
     1     1     2 ar  
     2     1     6 ar  
     3     2     3 ar  
     4     2    42 1   
     5     3     4 ar  
     6     4     5 ar  
     7     4    19 ar  
     8     5     6 ar  
     9     5    22 ar  
    10     6    30 1   
    11     7    46 1   
    12     7    47 1   
    13     7    48 1   
    14     7    91 1   
    15     8    49 1   
    16     8    50 1   
    17     8    51 1   
    18     8    91 1   
    19     9    52 1   
    20     9    53 1   
    21     9    54 1   
    22     9    91 1   
    23    10    87 2   
    24    11    12 ar  
    25    11    13 ar  
    26    11    57 1   
    27    12    32 ar  
    28    12    58 1   
    29    13    36 ar  
    30    13    59 1   
    31    14    16 ar  
    32    14    33 ar  
    33    14    60 1   
    34    15    17 ar  
    35    15    33 ar  
    36    15    61 1   
    37    16    34 ar  
    38    16    62 1   
    39    17    34 ar  
    40    17    63 1   
    41    18    19 ar  
    42    18    35 ar  
    43    18    64 1   
    44    19    65 1   
    45    20    32 ar  
    46    20    36 ar  
    47    20    66 1   
    48    21    37 1   
    49    21    38 2   
    50    21    67 1   
    51    22    35 ar  
    52    22    68 1   
    53    23    24 1   
    54    23    69 1   
    55    23    70 1   
    56    23    87 1   
    57    24    40 1   
    58    24    71 1   
    59    24    72 1   
    60    25    27 1   
    61    25    39 1   
    62    25    73 1   
    63    25    74 1   
    64    26    28 1   
    65    26    39 1   
    66    26    75 1   
    67    26    76 1   
    68    27    40 1   
    69    27    77 1   
    70    27    78 1   
    71    28    40 1   
    72    28    79 1   
    73    28    80 1   
    74    29    37 2   
    75    29    41 1   
    76    30    34 1   
    77    30    83 1   
    78    31    86 1   
    79    31    89 2   
    80    31    90 1   
    81    32    92 1   
    82    33    86 1   
    83    35    85 1   
    84    36    41 1   
    85    37    91 1   
    86    38    41 1   
    87    38    90 1   
    88    39    88 1   
    89    43    88 1   
    90    44    88 1   
    91    45    88 1   
    92    55    92 1   
    93    56    92 1   
    94    81    85 1   
    95    82    86 1   
    96    84    90 1   
    97    85    87 1   
@<TRIPOS>SUBSTRUCTURE
     1 AQM         1 TEMP              0 ****  ****    0 ROOT
