@<TRIPOS>MOLECULE
molecule
   27    29     1     0     0
SMALL
bcc


@<TRIPOS>ATOM
      1 C1           0.0000     0.0000     0.0000 ca         1 AQN       0.013000
      2 C2           1.3910     0.0000     0.0000 ca         1 AQN      -0.174600
      3 C3           2.1430     0.0000     1.2730 c          1 AQN       0.588300
      4 O3           1.5800    -0.2480     2.3200 o          1 AQN      -0.519100
      5 C4           3.5910     0.3060     1.2570 ca         1 AQN      -0.109600
      6 C5           4.2670     0.5940     2.4370 ca         1 AQN      -0.085000
      7 C6           5.6220     0.8780     2.4020 ca         1 AQN      -0.140000
      8 C7           6.3080     0.8740     1.2020 ca         1 AQN      -0.144000
      9 C8           5.6500     0.5900     0.0180 ca         1 AQN      -0.086000
     10 C9           4.2890     0.3040     0.0350 ca         1 AQN      -0.116600
     11 C10          3.5680    -0.0000    -1.2200 c          1 AQN       0.590300
     12 O10          4.1830    -0.2490    -2.2380 o          1 AQN      -0.534100
     13 C11          2.0890     0.0020    -1.2220 ca         1 AQN      -0.129600
     14 C12          1.3810     0.0050    -2.4190 ca         1 AQN      -0.115000
     15 C13         -0.0030     0.0050    -2.4020 ca         1 AQN      -0.027000
     16 C14         -0.6880     0.0030    -1.2010 ca         1 AQN      -0.239500
     17 S15         -2.4500     0.0030    -1.1990 s6         1 AQN       1.314100
     18 OS1         -2.8530    -0.5380    -2.4500 o          1 AQN      -0.701200
     19 OS2         -2.8510    -0.5440     0.0490 o          1 AQN      -0.701200
     20 OS3         -2.9010     1.4560    -1.1960 o          1 AQN      -0.701200
     21 H1          -0.5430    -0.0010     0.9370 ha         1 AQN       0.176000
     22 H5           3.8780     0.6600     3.4460 ha         1 AQN       0.149000
     23 H6           6.1740     1.1050     3.3060 ha         1 AQN       0.125000
     24 H7           7.3680     1.0980     1.2200 ha         1 AQN       0.125000
     25 H8           6.3230     0.6520    -0.8290 ha         1 AQN       0.146000
     26 H12          1.9120     0.0060    -3.3640 ha         1 AQN       0.138000
     27 H13         -0.5530     0.0080    -3.3350 ha         1 AQN       0.160000
@<TRIPOS>BOND
     1    21     1 1
     2     1    16 ar
     3     1     2 ar
     4     3     2 1
     5     2    13 ar
     6     4     3 2
     7     3     5 1
     8     6     5 ar
     9     5    10 ar
    10    22     6 1
    11     6     7 ar
    12    23     7 1
    13     7     8 ar
    14     8    24 1
    15     8     9 ar
    16    10     9 ar
    17     9    25 1
    18    10    11 1
    19    13    11 1
    20    11    12 2
    21    13    14 ar
    22    15    14 ar
    23    14    26 1
    24    16    15 ar
    25    15    27 1
    26    17    16 1
    27    18    17 1
    28    19    17 1
    29    17    20 1
@<TRIPOS>SUBSTRUCTURE
     1 AQN         1 TEMP              0 ****  ****    0 ROOT
