@<TRIPOS>MOLECULE
AQO
   19    20     1     0     0
SMALL
bcc


@<TRIPOS>ATOM
      1 C1          0.0020   -0.0230   -0.0410 ca        1 AQO     -0.165000
      2 C2          1.4020   -0.0930   -0.0250 ca        1 AQO     -0.087000
      3 C3          2.1060   -0.1040    1.1670 ca        1 AQO     -0.136000
      4 C4          1.4100   -0.0440    2.4030 ca        1 AQO      0.213400
      5 N5          2.1260   -0.0480    3.5990 nc        1 AQO     -0.680100
      6 C6          1.4370   -0.0190    4.7490 cd        1 AQO      0.666800
      7 N7          2.1300   -0.1560    5.9790 nh        1 AQO     -0.887800
      8 N8          0.0290    0.0820    4.8160 n         1 AQO     -0.506400
      9 C9         -0.7450    0.0850    3.6410 c         1 AQO      0.719100
     10 O10        -1.9820    0.1450    3.7580 o         1 AQO     -0.623500
     11 C11        -0.0080    0.0270    2.3710 ca        1 AQO     -0.208600
     12 C12        -0.7010    0.0360    1.1520 ca        1 AQO     -0.052000
     13 HC1        -0.5350   -0.0160   -1.0000 ha        1 AQO      0.139000
     14 HC2         1.9500   -0.1400   -0.9790 ha        1 AQO      0.136000
     15 HC3         3.2050   -0.1610    1.1650 ha        1 AQO      0.151000
     16 H71         1.7890    0.4210    6.7160 hn        1 AQO      0.414300
     17 H72         3.1250   -0.1380    5.8880 hn        1 AQO      0.414300
     18 H8         -0.4440    0.0520    5.6920 hn        1 AQO      0.335500
     19 H12        -1.8020    0.0900    1.1660 ha        1 AQO      0.156000
@<TRIPOS>BOND
     1    1    2 ar  
     2    1   12 ar  
     3    1   13 1   
     4    2    3 ar  
     5    2   14 1   
     6    3    4 ar  
     7    3   15 1   
     8    4    5 1   
     9    4   11 ar  
    10    5    6 2   
    11    6    7 1   
    12    6    8 1   
    13    7   16 1   
    14    7   17 1   
    15    8    9 1   
    16    8   18 1   
    17    9   10 2   
    18    9   11 1   
    19   11   12 ar  
    20   12   19 1   
@<TRIPOS>SUBSTRUCTURE
     1 AQO         1 TEMP              0 ****  ****    0 ROOT
