@<TRIPOS>MOLECULE
AQP
   47    49     1     0     0
SMALL
bcc


@<TRIPOS>ATOM
      1 N6          0.0000    0.0000    0.0000 nv        1 AQP     -0.575500
      2 C6          1.3830    0.0000    0.0000 ca        1 AQP      0.097200
      3 N1          2.0630    0.0000    1.1420 nb        1 AQP     -0.628000
      4 C2          3.3830    0.0000    1.1520 ca        1 AQP      0.341900
      5 N3          4.0990    0.0020    0.0470 nb        1 AQP     -0.898000
      6 C4          3.5060    0.0020   -1.1430 ca        1 AQP      0.316800
      7 N9          3.9440    0.0040   -2.4430 na        1 AQP      0.173000
      8 C8          2.8420    0.0040   -3.2450 cc        1 AQP     -0.065300
      9 N7          1.7630    0.0020   -2.5190 nd        1 AQP     -0.542100
     10 C5          2.1030   -0.0040   -1.2080 ca        1 AQP     -0.218200
     11 C1'         5.3400    0.0050   -2.8870 c3        1 AQP      0.161800
     12 O4'         5.4380    0.5140   -4.2360 os        1 AQP     -0.354600
     13 C4'         6.7000    0.0230   -4.7370 c3        1 AQP      0.150100
     14 C5'         6.7100    0.0450   -6.2670 c3        1 AQP      0.249400
     15 O5'         6.6670    1.3970   -6.7240 os        1 AQP     -0.467200
     16 PA          6.6800    1.3450   -8.3340 p5        1 AQP      0.926800
     17 O1A         8.0810    0.7340   -8.8400 o         1 AQP     -0.683500
     18 O2A         5.5690    0.4900   -8.8090 o         1 AQP     -0.683500
     19 O3A         6.5010    2.8340   -8.9210 os        1 AQP     -0.482800
     20 PB          5.9950    2.6760  -10.4410 p5        1 AQP      0.990800
     21 O2B         4.4140    2.3760  -10.4520 o         1 AQP     -0.532000
     22 O1B         6.7150    1.5560  -11.0870 o         1 AQP     -0.532000
     23 O3B         6.2880    4.0380  -11.2490 os        1 AQP     -0.494800
     24 PG          6.1400    3.6930  -12.8140 p5        1 AQP      0.994800
     25 O2G         4.5810    3.6770  -13.2150 o         1 AQP     -0.398500
     26 O1G         6.7330    2.3640  -13.0840 o         1 AQP     -0.398500
     27 O3G         6.9060    4.8090  -13.6840 os        1 AQP     -0.466800
     28 PD          7.0660    4.2110  -15.1710 p5        1 AQP      0.781900
     29 O2D         5.6830    4.3940  -15.9750 o         1 AQP     -0.652167
     30 O1D         8.2420    4.9970  -15.9420 o         1 AQP     -0.652167
     31 O3D         7.4040    2.7730  -15.0900 o         1 AQP     -0.652167
     32 C3'         6.7940   -1.4280   -4.2170 c3        1 AQP      0.120100
     33 O3'         8.1400   -1.7440   -3.8550 oh        1 AQP     -0.572800
     34 C2'         5.8800   -1.4400   -2.9690 c3        1 AQP      0.100100
     35 O2'         6.6330   -1.7670   -1.7990 oh        1 AQP     -0.557800
     36 HN61       -0.5000   -0.7920   -0.3520 hn        1 AQP      0.182300
     37 HN62       -0.5000    0.7750    0.3870 hn        1 AQP      0.182300
     38 H2          3.8970    0.0000    2.1060 h5        1 AQP     -0.079900
     39 H8          2.8620    0.0050   -4.3280 h5        1 AQP      0.023800
     40 H1'         5.9530    0.5970   -2.2180 h2        1 AQP      0.031700
     41 H4'         7.5150    0.6160   -4.3410 h1        1 AQP      0.014700
     42 H5'1        7.6140   -0.4300   -6.6290 h1        1 AQP      0.007700
     43 H5'2        5.8460   -0.4900   -6.6420 h1        1 AQP      0.007700
     44 H3'         6.4230   -2.1200   -4.9620 h1        1 AQP      0.008700
     45 H1          8.3200   -2.6450   -4.0680 ho        1 AQP      0.352000
     46 H2'         5.0640   -2.1390   -3.1090 h1        1 AQP      0.019700
     47 H3          6.3720   -2.6170   -1.4850 ho        1 AQP      0.358000
@<TRIPOS>BOND
     1    1    2 1   
     2    1   36 1   
     3    1   37 1   
     4    2    3 ar  
     5    2   10 ar  
     6    3    4 ar  
     7    4    5 ar  
     8    4   38 1   
     9    5    6 ar  
    10    6    7 1   
    11    6   10 ar  
    12    7    8 1   
    13    7   11 1   
    14    8    9 2   
    15    8   39 1   
    16    9   10 1   
    17   11   12 1   
    18   11   34 1   
    19   11   40 1   
    20   12   13 1   
    21   13   14 1   
    22   13   32 1   
    23   13   41 1   
    24   14   15 1   
    25   14   42 1   
    26   14   43 1   
    27   15   16 1   
    28   16   17 1   
    29   16   18 1   
    30   16   19 1   
    31   19   20 1   
    32   20   21 1   
    33   20   22 1   
    34   20   23 1   
    35   23   24 1   
    36   24   25 1   
    37   24   26 1   
    38   24   27 1   
    39   27   28 1   
    40   28   29 1   
    41   28   30 1   
    42   28   31 1   
    43   32   33 1   
    44   32   34 1   
    45   32   44 1   
    46   33   45 1   
    47   34   35 1   
    48   34   46 1   
    49   35   47 1   
@<TRIPOS>SUBSTRUCTURE
     1 AQP         1 TEMP              0 ****  ****    0 ROOT
