@<TRIPOS>MOLECULE
AQS
   53    55     1     0     0
SMALL
bcc


@<TRIPOS>ATOM
      1 C1           0.0000     0.0000     0.0000 ca         1 AQS      -0.074000
      2 C2           1.3830     0.0000     0.0000 ca         1 AQS       0.017000
      3 C3           2.0850     0.0000     1.1920 ca         1 AQS      -0.181500
      4 C4           1.4110    -0.0030     2.4010 ca         1 AQS       0.024000
      5 C5           0.0190     0.0030     2.4200 ca         1 AQS      -0.172600
      6 C6          -0.7080     0.0040     3.7060 c          1 AQS       0.653300
      7 O6          -0.0930     0.0060     4.7530 o          1 AQS      -0.567100
      8 C7          -2.1860     0.0060     3.7160 ca         1 AQS      -0.165600
      9 C8          -2.8800     0.0080     4.9240 ca         1 AQS      -0.043000
     10 C9          -4.2640     0.0090     4.9230 ca         1 AQS      -0.075000
     11 C16         -4.9650     0.0070     3.7310 ca         1 AQS      -0.064000
     12 C17         -4.2910     0.0060     2.5230 ca         1 AQS      -0.037000
     13 C18         -2.8990     0.0050     2.5040 ca         1 AQS      -0.146600
     14 C19         -2.1710     0.0030     1.2180 c          1 AQS       0.622300
     15 O19         -2.7880     0.0020     0.1710 o          1 AQS      -0.510100
     16 C20         -0.6940     0.0010     1.2070 ca         1 AQS      -0.059600
     17 S1           3.8460    -0.0010     1.1710 sy         1 AQS       1.060200
     18 O1S          4.2460    -0.5250     2.4300 o          1 AQS      -0.553800
     19 O2S          4.2170    -0.5280    -0.0950 o          1 AQS      -0.553800
     20 N1           4.3430     1.5790     1.1640 n3         1 AQS      -0.549500
     21 C1A          4.5760     2.2790     2.4290 c3         1 AQS       0.239800
     22 C2A          3.3190     3.0570     2.8210 c3         1 AQS      -0.069400
     23 C3A          3.5640     3.7890     4.1430 c3         1 AQS      -0.043700
     24 N3A          2.3570     4.5370     4.5200 nz         1 AQS       0.089400
     25 C1B          4.5470     2.2760    -0.1080 c3         1 AQS       0.239800
     26 C2B          6.0020     2.7400    -0.2070 c3         1 AQS      -0.069400
     27 C3B          6.2160     3.4690    -1.5360 c3         1 AQS      -0.043700
     28 N3B          7.6120     3.9160    -1.6300 nz         1 AQS       0.089400
     29 H1          -0.5430     0.0000    -0.9380 ha         1 AQS       0.146000
     30 H2           1.9210     0.0020    -0.9400 ha         1 AQS       0.125000
     31 H4           1.9660    -0.0030     3.3310 ha         1 AQS       0.136000
     32 H8          -2.3370     0.0090     5.8610 ha         1 AQS       0.126000
     33 H9          -4.8020     0.0100     5.8640 ha         1 AQS       0.120000
     34 H16         -6.0480     0.0080     3.7440 ha         1 AQS       0.122000
     35 H17         -4.8460     0.0050     1.5930 ha         1 AQS       0.134000
     36 HA11         4.8110     1.5580     3.2020 h1         1 AQS       0.039700
     37 HA12         5.4050     2.9670     2.3130 h1         1 AQS       0.039700
     38 HA21         3.0850     3.7780     2.0470 hc         1 AQS       0.039950
     39 HA22         2.4900     2.3700     2.9370 hc         1 AQS       0.039950
     40 HA31         4.3930     4.4770     4.0270 hx         1 AQS       0.087700
     41 HA32         3.7980     3.0680     4.9160 hx         1 AQS       0.087700
     42 HNA1         2.5760     5.1720     5.2610 hn         1 AQS       0.227800
     43 HNA2         1.6500     3.8980     4.8260 hn         1 AQS       0.227800
     44 HNA3         2.0220     5.0510     3.7290 hn         1 AQS       0.227800
     45 HB11         3.8890     3.1350    -0.1600 h1         1 AQS       0.039700
     46 HB12         4.3270     1.6030    -0.9280 h1         1 AQS       0.039700
     47 HB21         6.6600     1.8810    -0.1560 hc         1 AQS       0.039950
     48 HB22         6.2230     3.4130     0.6130 hc         1 AQS       0.039950
     49 HB31         5.5580     4.3280    -1.5870 hx         1 AQS       0.087700
     50 HB32         5.9960     2.7960    -2.3560 hx         1 AQS       0.087700
     51 HNB1         8.2220     3.1290    -1.5290 hn         1 AQS       0.227800
     52 HNB2         7.7660     4.3450    -2.5210 hn         1 AQS       0.227800
     53 HNB3         7.8000     4.5780    -0.9030 hn         1 AQS       0.227800
@<TRIPOS>BOND
     1     1     2 ar  
     2     1    16 ar  
     3     1    29 1   
     4     2     3 ar  
     5     2    30 1   
     6     3     4 ar  
     7     3    17 1   
     8     4     5 ar  
     9     4    31 1   
    10     5     6 1   
    11     5    16 ar  
    12     6     7 2   
    13     6     8 1   
    14     8     9 ar  
    15     8    13 ar  
    16     9    10 ar  
    17     9    32 1   
    18    10    11 ar  
    19    10    33 1   
    20    11    12 ar  
    21    11    34 1   
    22    12    13 ar  
    23    12    35 1   
    24    13    14 1   
    25    14    15 2   
    26    14    16 1   
    27    17    18 2   
    28    17    19 2   
    29    17    20 1   
    30    20    21 1   
    31    20    25 1   
    32    21    22 1   
    33    21    36 1   
    34    21    37 1   
    35    22    23 1   
    36    22    38 1   
    37    22    39 1   
    38    23    24 1   
    39    23    40 1   
    40    23    41 1   
    41    24    42 1   
    42    24    43 1   
    43    24    44 1   
    44    25    26 1   
    45    25    45 1   
    46    25    46 1   
    47    26    27 1   
    48    26    47 1   
    49    26    48 1   
    50    27    28 1   
    51    27    49 1   
    52    27    50 1   
    53    28    51 1   
    54    28    52 1   
    55    28    53 1   
@<TRIPOS>SUBSTRUCTURE
     1 AQS         1 TEMP              0 ****  ****    0 ROOT
