@<TRIPOS>MOLECULE
molecule
   56    59     1     0     0
SMALL
bcc


@<TRIPOS>ATOM
      1 N1           0.0000     0.0000     0.0000 na         1 AQT      -0.263300
      2 C1           8.5630     4.6570    -6.9030 c3         1 AQT      -0.050100
      3 N2           1.8080     0.0000     1.2210 nc         1 AQT      -0.611100
      4 C2           8.7840     3.3510    -7.6230 ca         1 AQT      -0.051300
      5 C5           9.1910     0.9500    -8.9480 ca         1 AQT      -0.137000
      6 C6           8.4170     0.9760    -7.8060 ca         1 AQT      -0.106000
      7 C7           8.2090     2.1800    -7.1360 cp         1 AQT      -0.049000
      8 C24          6.1730     2.9150    -5.8960 ca         1 AQT       0.032400
      9 C8           7.3770     2.2140    -5.9070 cp         1 AQT      -0.022000
     10 C4           9.7550     2.1170    -9.4310 ca         1 AQT      -0.120000
     11 C3           9.5510     3.3150    -8.7690 ca         1 AQT      -0.128000
     12 C            9.5880     4.7970    -5.7760 c3         1 AQT      -0.087100
     13 C23          5.4040     2.9430    -4.7480 ca         1 AQT      -0.100000
     14 C11          5.8240     2.2710    -3.6160 ca         1 AQT      -0.080300
     15 C10          7.0160     1.5690    -3.6230 ca         1 AQT      -0.124000
     16 C9           7.7970     1.5430    -4.7600 ca         1 AQT      -0.110000
     17 C12          4.9800     2.3050    -2.3670 c3         1 AQT       0.207100
     18 N            4.0340     1.1810    -2.3850 n7         1 AQT      -0.822200
     19 C13          3.1930     1.1820    -1.1810 c3         1 AQT       0.159800
     20 C14          2.2230    -0.0000    -1.2350 c3         1 AQT      -0.081700
     21 C15          1.3600     0.0000     0.0000 cd         1 AQT       0.428800
     22 C22          0.7640    -0.0060     2.0910 ca         1 AQT       0.130400
     23 C16         -0.4110    -0.0000     1.3210 ca         1 AQT      -0.125200
     24 C21          0.6740    -0.0100     3.4850 ca         1 AQT      -0.114000
     25 C19         -0.5670    -0.0160     4.0910 ca         1 AQT       0.123100
     26 O           -0.6570    -0.0190     5.4470 os         1 AQT      -0.327900
     27 C20         -1.9700    -0.0260     6.0110 c3         1 AQT       0.130700
     28 C18         -1.7270     0.0030     3.3200 ca         1 AQT      -0.197000
     29 C17         -1.6500     0.0040     1.9450 ca         1 AQT      -0.091000
     30 H1          -0.5930    -0.0000    -0.8060 hn         1 AQT       0.302700
     31 H2           7.5630     4.6750    -6.4860 hc         1 AQT       0.055700
     32 H3           8.6790     5.4780    -7.6000 hc         1 AQT       0.055700
     33 H5           9.3530     0.0150    -9.4700 ha         1 AQT       0.130000
     34 H6           7.9730     0.0610    -7.4300 ha         1 AQT       0.134000
     35 H7          10.3600     2.0930   -10.3290 ha         1 AQT       0.129000
     36 H8           9.9950     4.2260    -9.1520 ha         1 AQT       0.132000
     37 H9           9.0790     5.0500    -4.8540 hc         1 AQT       0.035700
     38 H10         10.1170     3.8600    -5.6500 hc         1 AQT       0.035700
     39 H11         10.2940     5.5790    -6.0250 hc         1 AQT       0.035700
     40 H12          4.4690     3.4910    -4.7360 ha         1 AQT       0.150000
     41 H13          7.3400     1.0460    -2.7320 ha         1 AQT       0.133000
     42 H14          8.7300     0.9930    -4.7640 ha         1 AQT       0.143000
     43 H15          5.6200     2.2240    -1.4970 h1         1 AQT       0.042700
     44 H16          4.4310     3.2380    -2.3270 h1         1 AQT       0.042700
     45 H17          4.5400     0.3190    -2.4390 hn         1 AQT       0.356800
     46 H19          2.6330     2.1070    -1.1320 h1         1 AQT       0.049200
     47 H20          3.8210     1.0930    -0.3020 h1         1 AQT       0.049200
     48 H21          1.5950     0.0880    -2.1140 hc         1 AQT       0.065200
     49 H22          2.7830    -0.9260    -1.2840 hc         1 AQT       0.065200
     50 H23          1.5710    -0.1020     4.0860 ha         1 AQT       0.156000
     51 H24         -2.5020    -0.9080     5.6740 h1         1 AQT       0.040033
     52 H25         -1.8990    -0.0380     7.0910 h1         1 AQT       0.040033
     53 H26         -2.5040     0.8610     5.6940 h1         1 AQT       0.040033
     54 H27         -2.6950    -0.0020     3.8060 ha         1 AQT       0.138000
     55 H28         -2.5560     0.0190     1.3510 ha         1 AQT       0.127000
     56 Cl           5.6440     3.7590    -7.3180 cl         1 AQT      -0.098400
@<TRIPOS>BOND
     1     5     6 ar
     2     5    10 ar
     3     6     7 ar
     4    10    11 ar
     5    16    15 ar
     6    16     9 ar
     7     7     4 ar
     8     7     9 1
     9    11     4 ar
    10     4     2 1
    11    15    14 ar
    12     9     8 ar
    13    12     2 1
    14    14    13 ar
    15    14    17 1
    16     8    13 ar
    17     8    56 1
    18    17    18 1
    19    18    19 1
    20    19    20 1
    21    20    21 1
    22    21     1 1
    23    21     3 2
    24     1    23 1
    25     3    22 1
    26    23    22 ar
    27    23    29 ar
    28    22    24 ar
    29    29    28 ar
    30    24    25 ar
    31    28    25 ar
    32    25    26 1
    33    26    27 1
    34     1    30 1
    35     2    31 1
    36     2    32 1
    37     5    33 1
    38     6    34 1
    39    10    35 1
    40    11    36 1
    41    12    37 1
    42    12    38 1
    43    12    39 1
    44    13    40 1
    45    15    41 1
    46    16    42 1
    47    17    43 1
    48    17    44 1
    49    18    45 1
    50    19    46 1
    51    19    47 1
    52    20    48 1
    53    20    49 1
    54    24    50 1
    55    27    51 1
    56    27    52 1
    57    27    53 1
    58    28    54 1
    59    29    55 1
@<TRIPOS>SUBSTRUCTURE
     1 AQT         1 TEMP              0 ****  ****    0 ROOT
