@<TRIPOS>MOLECULE
molecule
   65    69     1     0     0
SMALL
bcc


@<TRIPOS>ATOM
      1 N1           0.0000     0.0000     0.0000 nb         1 AQU      -0.821000
      2 C2           1.3230     0.0000     0.0000 ca         1 AQU       0.723900
      3 N3           2.0370     0.0000     1.1010 nb         1 AQU      -0.770000
      4 C4           1.4370     0.0020     2.3010 ca         1 AQU       0.475600
      5 C5           0.0220     0.0030     2.3530 ca         1 AQU      -0.321600
      6 C6          -0.6930     0.0010     1.1310 ca         1 AQU       0.742200
      7 CAA         -5.0550    -7.2500    -6.0670 c3         1 AQU      -0.081767
      8 CAB         -2.7560    -6.3720    -6.5010 c3         1 AQU      -0.081767
      9 CAC         -4.2510    -6.9580    -8.4140 c3         1 AQU      -0.081767
     10 OAE         -4.1350    -2.5860    -3.9620 o          1 AQU      -0.623100
     11 CAF          1.5070     0.0040     4.6890 ca         1 AQU      -0.097000
     12 CAG          0.1160     0.0050     4.7380 ca         1 AQU      -0.143000
     13 CAH         -8.0450    -0.3800    -8.4920 ca         1 AQU      -0.062000
     14 CAJ         -7.9260    -0.3680    -9.8680 ca         1 AQU      -0.222000
     15 CAK         -7.3250    -1.2880    -7.7400 ca         1 AQU      -0.236000
     16 CAL         -2.9020    -1.0070    -2.3200 ca         1 AQU      -0.128000
     17 CAM         -4.6540     0.4040    -1.4700 ca         1 AQU      -0.128000
     18 CAN         -2.2250    -0.8870    -1.1240 ca         1 AQU      -0.124500
     19 CAO         -3.9770     0.5250    -0.2730 ca         1 AQU      -0.124500
     20 CAP          2.1680     0.0020     3.4970 ca         1 AQU      -0.179300
     21 CAQ         -0.6260     0.0040     3.5940 ca         1 AQU      -0.092000
     22 CAR         -6.3560    -2.1860    -9.7490 ca         1 AQU      -0.207000
     23 CAS         -4.5900    -4.0370    -5.9830 cc         1 AQU      -0.341300
     24 NAV         -5.4330    -4.4280    -7.9740 nd         1 AQU      -0.504800
     25 NAX         -5.3020    -1.7090    -5.6360 ns         1 AQU      -0.471100
     26 NAY         -2.0720     0.0010     1.1160 nu         1 AQU      -0.754300
     27 CAZ         -4.7270    -1.6280    -4.4200 c          1 AQU       0.789100
     28 CBA         -7.0800    -1.2720   -10.5000 ca         1 AQU       0.224600
     29 CBB         -4.1190    -0.3620    -2.4970 ca         1 AQU       0.054600
     30 CBC         -2.7590    -0.1200    -0.0970 ca         1 AQU       0.132600
     31 CBD         -6.4780    -2.1940    -8.3660 ca         1 AQU       0.089800
     32 CBE         -4.7430    -4.9760    -7.0060 cc         1 AQU       0.366600
     33 CBF         -5.2180    -2.8930    -6.3700 cd         1 AQU       0.082300
     34 NBJ         -5.7480    -3.1150    -7.6040 na         1 AQU       0.117300
     35 H2           1.8400    -0.0010    -0.9520 h5         1 AQU       0.058100
     36 HAA         -6.0920    -7.2000    -6.3760 hc         1 AQU       0.039589
     37 HAAA        -4.9600    -6.8720    -5.0570 hc         1 AQU       0.039589
     38 HAAB        -4.7170    -8.2790    -6.1010 hc         1 AQU       0.039589
     39 HAB         -2.7390    -6.1390    -5.4430 hc         1 AQU       0.039589
     40 HABA        -2.2230    -5.6050    -7.0490 hc         1 AQU       0.039589
     41 HABB        -2.2800    -7.3310    -6.6670 hc         1 AQU       0.039589
     42 HAC         -5.2800    -7.0060    -8.7500 hc         1 AQU       0.039589
     43 HACA        -3.8000    -7.9390    -8.4920 hc         1 AQU       0.039589
     44 HACB        -3.7020    -6.2580    -9.0330 hc         1 AQU       0.039589
     45 HNAD        -7.4840    -0.6010   -12.4330 hn         1 AQU       0.433800
     46 HNAA        -6.3550    -1.9130   -12.3470 hn         1 AQU       0.433800
     47 HAF          2.0730     0.0040     5.6120 ha         1 AQU       0.135000
     48 HAG         -0.3840     0.0060     5.6990 ha         1 AQU       0.132000
     49 HAH         -8.7050     0.3250    -8.0000 ha         1 AQU       0.132000
     50 HAJ         -8.4920     0.3450   -10.4540 ha         1 AQU       0.132000
     51 HAK         -7.4210    -1.2940    -6.6610 ha         1 AQU       0.132000
     52 HAL         -2.4850    -1.6050    -3.1210 ha         1 AQU       0.149500
     53 HAM         -5.6040     0.9070    -1.6080 ha         1 AQU       0.149500
     54 HAN         -1.2760    -1.3900    -0.9870 ha         1 AQU       0.148500
     55 HAO         -4.3940     1.1230     0.5280 ha         1 AQU       0.148500
     56 HAP          3.2510     0.0020     3.4740 ha         1 AQU       0.154000
     57 HAQ         -1.7080     0.0050     3.6450 ha         1 AQU       0.122000
     58 HAR         -5.6960    -2.8910   -10.2390 ha         1 AQU       0.156000
     59 HAS         -4.0650    -4.1920    -5.0480 ha         1 AQU       0.203000
     60 HNAX        -5.7530    -0.9080    -6.0310 hn         1 AQU       0.328500
     61 HNAW        -5.3400     0.2860    -4.0640 hn         1 AQU       0.318500
     62 HNAY        -2.5820     0.0940     1.9720 hn         1 AQU       0.458800
     63 NAW         -4.8070    -0.4840    -3.7110 ns         1 AQU      -0.486100
     64 CBK         -4.2030    -6.3840    -6.9970 c3         1 AQU      -0.082300
     65 NAD         -6.9610    -1.2600   -11.8920 nv         1 AQU      -0.915200
@<TRIPOS>BOND
     1     1     2 ar
     2     1     6 ar
     3     2     3 ar
     4     3     4 ar
     5     4     5 ar
     6     4    20 ar
     7     5     6 ar
     8     5    21 ar
     9     6    26 1
    10     7    64 1
    11     8    64 1
    12     9    64 1
    13    65    28 1
    14    10    27 2
    15    11    12 ar
    16    11    20 ar
    17    12    21 ar
    18    13    14 ar
    19    13    15 ar
    20    14    28 ar
    21    15    31 ar
    22    16    18 ar
    23    16    29 ar
    24    17    19 ar
    25    17    29 ar
    26    18    30 ar
    27    19    30 ar
    28    22    28 ar
    29    22    31 ar
    30    23    32 1
    31    23    33 2
    32    24    32 2
    33    24    34 1
    34    63    27 1
    35    63    29 1
    36    25    27 1
    37    25    33 1
    38    26    30 1
    39    31    34 1
    40    32    64 1
    41    33    34 1
    42     2    35 1
    43     7    36 1
    44     7    37 1
    45     7    38 1
    46     8    39 1
    47     8    40 1
    48     8    41 1
    49     9    42 1
    50     9    43 1
    51     9    44 1
    52    65    45 1
    53    65    46 1
    54    11    47 1
    55    12    48 1
    56    13    49 1
    57    14    50 1
    58    15    51 1
    59    16    52 1
    60    17    53 1
    61    18    54 1
    62    19    55 1
    63    20    56 1
    64    21    57 1
    65    22    58 1
    66    23    59 1
    67    25    60 1
    68    26    62 1
    69    63    61 1
@<TRIPOS>SUBSTRUCTURE
     1 AQU         1 TEMP              0 ****  ****    0 ROOT
