@<TRIPOS>MOLECULE
AQU
   65    69     1     0     0
SMALL
bcc


@<TRIPOS>ATOM
      1 N1           0.0000     0.0000     0.0000 nb         1 AQU      -0.722000
      2 C2           1.3230     0.0000     0.0000 ca         1 AQU       0.681900
      3 N3           2.0370     0.0000     1.1010 nb         1 AQU      -0.678000
      4 C4           1.4370     0.0020     2.3010 ca         1 AQU       0.440600
      5 C5           0.0220     0.0030     2.3530 ca         1 AQU      -0.318600
      6 C6          -0.6930     0.0010     1.1310 ca         1 AQU       0.542200
      7 CAA         -5.0550    -7.2500    -6.0670 c3         1 AQU       0.004900
      8 CAB         -2.7560    -6.3720    -6.5010 c3         1 AQU       0.004900
      9 CAC         -4.2510    -6.9580    -8.4140 c3         1 AQU       0.004900
     10 OAE         -4.1350    -2.5860    -3.9620 o          1 AQU      -0.671100
     11 CAF          1.5070     0.0040     4.6890 ca         1 AQU      -0.071000
     12 CAG          0.1160     0.0050     4.7380 ca         1 AQU      -0.115000
     13 CAH         -8.0450    -0.3800    -8.4920 ca         1 AQU      -0.026000
     14 CAJ         -7.9260    -0.3680    -9.8680 ca         1 AQU      -0.194000
     15 CAK         -7.3250    -1.2880    -7.7400 ca         1 AQU      -0.215000
     16 CAL         -2.9020    -1.0070    -2.3200 ca         1 AQU      -0.099500
     17 CAM         -4.6540     0.4040    -1.4700 ca         1 AQU      -0.099500
     18 CAN         -2.2250    -0.8870    -1.1240 ca         1 AQU      -0.097000
     19 CAO         -3.9770     0.5250    -0.2730 ca         1 AQU      -0.097000
     20 CAP          2.1680     0.0020     3.4970 ca         1 AQU      -0.155300
     21 CAQ         -0.6260     0.0040     3.5940 ca         1 AQU      -0.068000
     22 CAR         -6.3560    -2.1860    -9.7490 ca         1 AQU      -0.175000
     23 CAS         -4.5900    -4.0370    -5.9830 cc         1 AQU      -0.334300
     24 NAV         -5.4330    -4.4280    -7.9740 nd         1 AQU      -0.654800
     25 NAX         -5.3020    -1.7090    -5.6360 ns         1 AQU      -0.024100
     26 NAY         -2.0720     0.0010     1.1160 nu         1 AQU      -0.277300
     27 CAZ         -4.7270    -1.6280    -4.4200 c          1 AQU       0.555100
     28 CBA         -7.0800    -1.2720   -10.5000 ca         1 AQU       0.072600
     29 CBB         -4.1190    -0.3620    -2.4970 ca         1 AQU      -0.088400
     30 CBC         -2.7590    -0.1200    -0.0970 ca         1 AQU      -0.026400
     31 CBD         -6.4780    -2.1940    -8.3660 ca         1 AQU      -0.078200
     32 CBE         -4.7430    -4.9760    -7.0060 cc         1 AQU       0.390600
     33 CBF         -5.2180    -2.8930    -6.3700 cd         1 AQU      -0.231700
     34 NBJ         -5.7480    -3.1150    -7.6040 na         1 AQU       0.582300
     35 H2           1.8400    -0.0010    -0.9520 h5         1 AQU      -0.005900
     36 HAA         -6.0920    -7.2000    -6.3760 hc         1 AQU       0.007700
     37 HAAA        -4.9600    -6.8720    -5.0570 hc         1 AQU       0.007700
     38 HAAB        -4.7170    -8.2790    -6.1010 hc         1 AQU       0.007700
     39 HAB         -2.7390    -6.1390    -5.4430 hc         1 AQU       0.007700
     40 HABA        -2.2230    -5.6050    -7.0490 hc         1 AQU       0.007700
     41 HABB        -2.2800    -7.3310    -6.6670 hc         1 AQU       0.007700
     42 HAC         -5.2800    -7.0060    -8.7500 hc         1 AQU       0.007700
     43 HACA        -3.8000    -7.9390    -8.4920 hc         1 AQU       0.007700
     44 HACB        -3.7020    -6.2580    -9.0330 hc         1 AQU       0.007700
     45 HNAD        -7.4840    -0.6010   -12.4330 hn         1 AQU       0.268300
     46 HNAA        -6.3550    -1.9130   -12.3470 hn         1 AQU       0.268300
     47 HAF          2.0730     0.0040     5.6120 ha         1 AQU       0.103000
     48 HAG         -0.3840     0.0060     5.6990 ha         1 AQU       0.104000
     49 HAH         -8.7050     0.3250    -8.0000 ha         1 AQU       0.100000
     50 HAJ         -8.4920     0.3450   -10.4540 ha         1 AQU       0.112000
     51 HAK         -7.4210    -1.2940    -6.6610 ha         1 AQU       0.113000
     52 HAL         -2.4850    -1.6050    -3.1210 ha         1 AQU       0.124500
     53 HAM         -5.6040     0.9070    -1.6080 ha         1 AQU       0.124500
     54 HAN         -1.2760    -1.3900    -0.9870 ha         1 AQU       0.121500
     55 HAO         -4.3940     1.1230     0.5280 ha         1 AQU       0.121500
     56 HAP          3.2510     0.0020     3.4740 ha         1 AQU       0.122000
     57 HAQ         -1.7080     0.0050     3.6450 ha         1 AQU       0.100000
     58 HAR         -5.6960    -2.8910   -10.2390 ha         1 AQU       0.135000
     59 HAS         -4.0650    -4.1920    -5.0480 ha         1 AQU       0.194000
     60 HNAX        -5.7530    -0.9080    -6.0310 hn         1 AQU       0.173500
     61 HNAW        -5.3400     0.2860    -4.0640 hn         1 AQU       0.159500
     62 HNAY        -2.5820     0.0940     1.9720 hn         1 AQU       0.290800
     63 NAW         -4.8070    -0.4840    -3.7110 ns         1 AQU      -0.047100
     64 CBK         -4.2030    -6.3840    -6.9970 c3         1 AQU      -0.079300
     65 NAD         -6.9610    -1.2600   -11.8920 nv         1 AQU      -0.435200
@<TRIPOS>BOND
     1     1     2 ar  
     2     1     6 ar  
     3     2     3 ar  
     4     2    35 1   
     5     3     4 ar  
     6     4     5 ar  
     7     4    20 ar  
     8     5     6 ar  
     9     5    21 ar  
    10     6    26 1   
    11     7    36 1   
    12     7    37 1   
    13     7    38 1   
    14     7    64 1   
    15     8    39 1   
    16     8    40 1   
    17     8    41 1   
    18     8    64 1   
    19     9    42 1   
    20     9    43 1   
    21     9    44 1   
    22     9    64 1   
    23    10    27 2   
    24    11    12 ar  
    25    11    20 ar  
    26    11    47 1   
    27    12    21 ar  
    28    12    48 1   
    29    13    14 ar  
    30    13    15 ar  
    31    13    49 1   
    32    14    28 ar  
    33    14    50 1   
    34    15    31 ar  
    35    15    51 1   
    36    16    18 ar  
    37    16    29 ar  
    38    16    52 1   
    39    17    19 ar  
    40    17    29 ar  
    41    17    53 1   
    42    18    30 ar  
    43    18    54 1   
    44    19    30 ar  
    45    19    55 1   
    46    20    56 1   
    47    21    57 1   
    48    22    28 ar  
    49    22    31 ar  
    50    22    58 1   
    51    23    32 1   
    52    23    33 2   
    53    23    59 1   
    54    24    32 2   
    55    24    34 1   
    56    25    27 1   
    57    25    33 1   
    58    25    60 1   
    59    26    30 1   
    60    26    62 1   
    61    27    63 1   
    62    28    65 1   
    63    29    63 1   
    64    31    34 1   
    65    32    64 1   
    66    33    34 1   
    67    45    65 1   
    68    46    65 1   
    69    61    63 1   
@<TRIPOS>SUBSTRUCTURE
     1 AQU         1 TEMP              0 ****  ****    0 ROOT
