@<TRIPOS>MOLECULE
AQV
   49    52     1     0     0
SMALL
bcc


@<TRIPOS>ATOM
      1 C1           0.0000     0.0000     0.0000 ca         1 AQV      -0.164100
      2 C2           1.3860     0.0000     0.0000 ca         1 AQV      -0.020000
      3 C3           2.0720     0.0000     1.2040 ca         1 AQV      -0.089500
      4 C4           1.3840    -0.0010     2.4030 ca         1 AQV      -0.089500
      5 C5          -0.0010    -0.0010     2.4180 ca         1 AQV      -0.020000
      6 C6          -0.7010    -0.0000     1.2220 ca         1 AQV      -0.164100
      7 N1          -2.2440    -0.0080    -0.4750 n          1 AQV      -0.110400
      8 N2          -4.9820    -1.6950    -2.2740 n          1 AQV       0.035000
      9 O1          -3.3600    -2.3520    -0.9100 o          1 AQV      -0.624100
     10 C7          -1.0320    -0.0050    -1.0580 c          1 AQV       0.663100
     11 C8          -2.1350     0.0000     0.8660 c          1 AQV       0.663100
     12 C9          -3.5150    -0.0140    -1.2040 c3         1 AQV      -0.089000
     13 C10         -3.9460    -1.4380    -1.4510 c          1 AQV       0.568100
     14 C11         -5.8440    -0.6050    -2.7530 c3         1 AQV      -0.004600
     15 C12         -7.3000    -1.0730    -2.6370 c3         1 AQV      -0.033400
     16 C13         -7.5070    -2.2750    -3.5590 c3         1 AQV       0.008600
     17 C14         -6.4520    -3.3200    -3.3080 ca         1 AQV      -0.118300
     18 C15         -5.2520    -3.0050    -2.6920 ca         1 AQV      -0.064400
     19 O2          -3.0620    -0.0010     1.6520 o          1 AQV      -0.619000
     20 O3          -0.8210    -0.0110    -2.2540 o          1 AQV      -0.619000
     21 C16         -4.2950    -3.9920    -2.4840 ca         1 AQV      -0.141000
     22 C17         -4.5430    -5.2900    -2.8860 ca         1 AQV      -0.079000
     23 C18         -5.7450    -5.6060    -3.4930 ca         1 AQV      -0.118000
     24 C19         -6.6930    -4.6250    -3.7060 ca         1 AQV      -0.091000
     25 C20         -8.8890    -2.8790    -3.2990 c3         1 AQV       0.003900
     26 C22         -5.5160    -0.2900    -4.2140 c3         1 AQV      -0.049100
     27 C21         -5.6300     0.6420    -1.8920 c3         1 AQV      -0.049100
     28 H1           1.9310     0.0010    -0.9370 ha         1 AQV       0.117000
     29 H2           3.1550    -0.0000     1.2060 ha         1 AQV       0.109000
     30 H3           1.9320    -0.0010     3.3370 ha         1 AQV       0.109000
     31 H4          -0.5350    -0.0020     3.3610 ha         1 AQV       0.117000
     32 H5          -3.3900     0.4950    -2.1520 h1         1 AQV       0.088200
     33 H6          -4.2700     0.4950    -0.6170 h1         1 AQV       0.088200
     34 H7          -7.9530    -0.2700    -2.9550 hc         1 AQV       0.033200
     35 H8          -7.4900    -1.3780    -1.6150 hc         1 AQV       0.033200
     36 H9          -7.4440    -1.9470    -4.5900 hc         1 AQV       0.036700
     37 H10         -3.3550    -3.7430    -2.0080 ha         1 AQV       0.173000
     38 H11         -3.8000    -6.0600    -2.7200 ha         1 AQV       0.104000
     39 H12         -5.9400    -6.6240    -3.8080 ha         1 AQV       0.102000
     40 H13         -7.6330    -4.8780    -4.1830 ha         1 AQV       0.110000
     41 H14         -9.6210    -2.0850    -3.2170 hc         1 AQV       0.008033
     42 H15         -9.1570    -3.5340    -4.1190 hc         1 AQV       0.008033
     43 H16         -8.8670    -3.4460    -2.3760 hc         1 AQV       0.008033
     44 H17         -6.4030     0.0830    -4.7110 hc         1 AQV       0.028367
     45 H18         -4.7360     0.4620    -4.2550 hc         1 AQV       0.028367
     46 H19         -5.1750    -1.1900    -4.7110 hc         1 AQV       0.028367
     47 H20         -5.5710     0.3540    -0.8490 hc         1 AQV       0.028367
     48 H21         -4.7070     1.1290    -2.1850 hc         1 AQV       0.028367
     49 H22         -6.4590     1.3240    -2.0330 hc         1 AQV       0.028367
@<TRIPOS>BOND
     1     1     2 ar  
     2     1     6 ar  
     3     1    10 1   
     4     2     3 ar  
     5     2    28 1   
     6     3     4 ar  
     7     3    29 1   
     8     4     5 ar  
     9     4    30 1   
    10     5     6 ar  
    11     5    31 1   
    12     6    11 1   
    13     7    10 1   
    14     7    11 1   
    15     7    12 1   
    16     8    13 1   
    17     8    14 1   
    18     8    18 1   
    19     9    13 2   
    20    10    20 2   
    21    11    19 2   
    22    12    13 1   
    23    12    32 1   
    24    12    33 1   
    25    14    15 1   
    26    14    26 1   
    27    14    27 1   
    28    15    16 1   
    29    15    34 1   
    30    15    35 1   
    31    16    17 1   
    32    16    25 1   
    33    16    36 1   
    34    17    18 ar  
    35    17    24 ar  
    36    18    21 ar  
    37    21    22 ar  
    38    21    37 1   
    39    22    23 ar  
    40    22    38 1   
    41    23    24 ar  
    42    23    39 1   
    43    24    40 1   
    44    25    41 1   
    45    25    42 1   
    46    25    43 1   
    47    26    44 1   
    48    26    45 1   
    49    26    46 1   
    50    27    47 1   
    51    27    48 1   
    52    27    49 1   
@<TRIPOS>SUBSTRUCTURE
     1 AQV         1 TEMP              0 ****  ****    0 ROOT
