@<TRIPOS>MOLECULE
molecule
   52    55     1     0     0
SMALL
bcc


@<TRIPOS>ATOM
      1 C1           0.0000     0.0000     0.0000 c3         1 AQW      -0.051100
      2 N1          -5.4740    -2.3530    -8.8550 na         1 AQW      -0.260300
      3 C2           1.5060     0.0000     0.0000 ca         1 AQW      -0.050300
      4 C3           2.1980     0.0000     1.1950 ca         1 AQW      -0.128000
      5 C4           3.5810     0.0000     1.1970 ca         1 AQW      -0.119000
      6 C5           4.2790    -0.0000     0.0030 ca         1 AQW      -0.136000
      7 C6           3.5990    -0.0000    -1.1980 ca         1 AQW      -0.106000
      8 C7           2.2060    -0.0050    -1.2060 cp         1 AQW      -0.050000
      9 C8           1.4680    -0.0050    -2.4940 cp         1 AQW      -0.021000
     10 C9           1.5630    -1.0980    -3.3530 ca         1 AQW      -0.111000
     11 C10          0.8740    -1.0940    -4.5480 ca         1 AQW      -0.105000
     12 C11          0.0910    -0.0070    -4.8960 ca         1 AQW      -0.081300
     13 C12         -0.6580    -0.0090    -6.2040 c3         1 AQW       0.207100
     14 C13         -2.7510    -0.6120    -7.2600 c3         1 AQW       0.159800
     15 C14         -4.1300    -1.2280    -7.0130 c3         1 AQW      -0.082700
     16 C15         -4.9110    -1.2460    -8.3020 cc         1 AQW       0.426800
     17 C16         -6.0960    -1.9570   -10.0240 ca         1 AQW      -0.095200
     18 C17         -6.8200    -2.6210   -11.0040 ca         1 AQW      -0.118000
     19 C18         -7.3240    -1.9190   -12.0780 ca         1 AQW      -0.109000
     20 C20         -6.3970     0.1240   -11.2230 ca         1 AQW      -0.065000
     21 C21         -5.8790    -0.5740   -10.1280 ca         1 AQW       0.101400
     22 C22         -0.0060     1.0800    -4.0480 ca         1 AQW      -0.119000
     23 C23          0.6740     1.0850    -2.8450 ca         1 AQW       0.032400
     24 Cl1          0.5460     2.4480    -1.7780 cl         1 AQW      -0.097400
     25 C           -0.5100    -1.4380    -0.1270 c3         1 AQW      -0.087100
     26 N           -1.9910    -0.5930    -6.0040 n7         1 AQW      -0.822200
     27 N2          -5.1440    -0.2050    -9.0460 nd         1 AQW      -0.603100
     28 C19         -7.1120    -0.5510   -12.1860 ca         1 AQW       0.012400
     29 Cl          -7.7560     0.3150   -13.5460 cl         1 AQW      -0.107400
     30 H1          -0.3610     0.5870    -0.8360 hc         1 AQW       0.055700
     31 H2          -0.3610     0.4310     0.9260 hc         1 AQW       0.055700
     32 H4           1.6560     0.0000     2.1330 ha         1 AQW       0.132000
     33 H5           4.1190     0.0000     2.1370 ha         1 AQW       0.129000
     34 H6           5.3620     0.0020     0.0100 ha         1 AQW       0.130000
     35 H7           4.1460    -0.0020    -2.1330 ha         1 AQW       0.134000
     36 H8           2.1750    -1.9500    -3.0830 ha         1 AQW       0.143000
     37 H9           0.9470    -1.9430    -5.2170 ha         1 AQW       0.140000
     38 H10         -0.7600     1.0080    -6.5630 h1         1 AQW       0.043200
     39 H11         -0.1120    -0.5960    -6.9320 h1         1 AQW       0.043200
     40 H12         -2.2180    -1.2040    -7.9950 h1         1 AQW       0.049700
     41 H13         -2.8680     0.4000    -7.6270 h1         1 AQW       0.049700
     42 H14         -4.0130    -2.2400    -6.6470 hc         1 AQW       0.066200
     43 H15         -4.6620    -0.6370    -6.2770 hc         1 AQW       0.066200
     44 H16         -6.9880    -3.6880   -10.9260 ha         1 AQW       0.133000
     45 H17         -7.8880    -2.4380   -12.8420 ha         1 AQW       0.147000
     46 H18         -6.2350     1.1910   -11.3140 ha         1 AQW       0.157000
     47 H19         -0.6220     1.9280    -4.3230 ha         1 AQW       0.143000
     48 H20          0.3210    -2.0970    -0.3490 hc         1 AQW       0.035700
     49 H21         -1.2380    -1.4940    -0.9270 hc         1 AQW       0.035700
     50 H22         -0.9720    -1.7410     0.8040 hc         1 AQW       0.035700
     51 H23         -2.4900    -0.0600    -5.3200 hn         1 AQW       0.356800
     52 H3          -5.5500    -3.2520    -8.4230 hn         1 AQW       0.304700
@<TRIPOS>BOND
     1     6     5 ar
     2     6     7 ar
     3     5     4 ar
     4     7     8 ar
     5    10    11 ar
     6    10     9 ar
     7     4     3 ar
     8     8     3 ar
     9     8     9 1
    10    11    12 ar
    11     3     1 1
    12     9    23 ar
    13    25     1 1
    14    12    13 1
    15    12    22 ar
    16    23    22 ar
    17    23    24 1
    18    13    26 1
    19    26    14 1
    20    15    14 1
    21    15    16 1
    22    16     2 1
    23    16    27 2
    24     2    17 1
    25    27    21 1
    26    17    21 ar
    27    17    18 ar
    28    21    20 ar
    29    18    19 ar
    30    20    28 ar
    31    19    28 ar
    32    28    29 1
    33     1    30 1
    34     1    31 1
    35     2    52 1
    36     4    32 1
    37     5    33 1
    38     6    34 1
    39     7    35 1
    40    10    36 1
    41    11    37 1
    42    13    38 1
    43    13    39 1
    44    14    40 1
    45    14    41 1
    46    15    42 1
    47    15    43 1
    48    18    44 1
    49    19    45 1
    50    20    46 1
    51    22    47 1
    52    25    48 1
    53    25    49 1
    54    25    50 1
    55    26    51 1
@<TRIPOS>SUBSTRUCTURE
     1 AQW         1 TEMP              0 ****  ****    0 ROOT
