@<TRIPOS>MOLECULE
molecule
   53    57     1     0     0
SMALL
bcc


@<TRIPOS>ATOM
      1 C4           0.0000     0.0000     0.0000 ca         1 AQY      -0.035800
      2 C5           1.3940     0.0000     0.0000 ca         1 AQY      -0.094000
      3 C6           2.0830     0.0000     1.1960 ca         1 AQY      -0.167000
      4 C7           1.3890     0.0010     2.3960 ca         1 AQY       0.137900
      5 C13         -3.5080    -0.4240    -4.8200 cc         1 AQY      -0.280300
      6 C17         -0.3580     0.6570    -2.4490 cd         1 AQY      -0.081300
      7 C20          2.4150     3.1280    -1.8980 ca         1 AQY       0.451200
      8 C22          2.7820     2.0950    -3.9350 ca         1 AQY       0.551200
      9 C24          4.6180     2.7890    -5.2720 c          1 AQY       0.662700
     10 C26          5.3860     2.7240    -6.5350 ca         1 AQY      -0.130600
     11 C28          5.7820     1.7920    -8.7060 ca         1 AQY      -0.097300
     12 C2           0.0040     0.0010     2.4020 ca         1 AQY      -0.125300
     13 C3          -0.6930     0.0010     1.2100 ca         1 AQY      -0.072000
     14 F8           2.0670     0.0010     3.5650 f          1 AQY      -0.138900
     15 C9          -0.7430     0.0060    -1.2820 cc         1 AQY       0.145400
     16 N10         -1.9030    -0.6130    -1.5200 nc         1 AQY      -0.279600
     17 C11         -2.2730    -0.3910    -2.7750 cd         1 AQY      -0.080300
     18 C12         -3.3950    -0.8060    -3.5180 cd         1 AQY      -0.015000
     19 C14         -2.5190     0.3720    -5.4080 cc         1 AQY       0.407200
     20 N15         -1.4790     0.7650    -4.7220 nd         1 AQY      -0.480800
     21 N16         -1.3290     0.3980    -3.3810 na         1 AQY       0.200200
     22 C18          0.8600     1.4640    -2.6460 ca         1 AQY       0.040200
     23 C19          1.2710     2.3960    -1.6790 ca         1 AQY      -0.265300
     24 N21          3.1280     2.9650    -2.9980 nb         1 AQY      -0.682000
     25 O25          4.9320     3.5870    -4.4110 o          1 AQY      -0.516100
     26 C27          5.0380     1.8180    -7.5420 ca         1 AQY      -0.136000
     27 N29          6.8060     2.6070    -8.8730 na         1 AQY       0.134600
     28 O30          7.5440     2.5410   -10.0790 o          1 AQY      -0.370000
     29 C31          7.1640     3.4800    -7.9500 ca         1 AQY      -0.057600
     30 C32          8.3440     4.3840    -8.2010 c3         1 AQY      -0.034800
     31 C33          6.4770     3.5730    -6.7580 ca         1 AQY      -0.083000
     32 C34          1.6470     1.3120    -3.7930 ca         1 AQY      -0.273300
     33 H1           1.9360    -0.0010    -0.9380 ha         1 AQY       0.145000
     34 H2           3.1660    -0.0000     1.1970 ha         1 AQY       0.149000
     35 H3          -4.3640    -0.7410    -5.4040 ha         1 AQY       0.153000
     36 H4           2.7360     3.8500    -1.1570 h4         1 AQY       0.034100
     37 H5           5.5200     1.0930    -9.4920 h4         1 AQY       0.193000
     38 H6          -1.8100    -0.0000     3.5160 hc         1 AQY       0.049033
     39 H7          -0.4780    -0.8810     4.2780 hc         1 AQY       0.049033
     40 H8          -0.4820     0.8880     4.2750 hc         1 AQY       0.049033
     41 H9          -1.7760     0.0010     1.2150 ha         1 AQY       0.154000
     42 H10         -4.1580    -1.4230    -3.0600 ha         1 AQY       0.168000
     43 H11         -2.6190     0.6710    -6.4450 h4         1 AQY       0.053100
     44 H12          0.6940     2.5380    -0.7730 ha         1 AQY       0.154000
     45 H13          3.3820     1.2320    -5.7340 hn         1 AQY       0.330500
     46 H14          4.1980     1.1460    -7.4110 ha         1 AQY       0.148000
     47 H16          9.2350     3.7840    -8.3440 hc         1 AQY       0.066700
     48 H17          8.1620     4.9770    -9.0890 hc         1 AQY       0.066700
     49 H18          8.4830     5.0400    -7.3500 hc         1 AQY       0.066700
     50 H19          6.7770     4.2920    -6.0050 ha         1 AQY       0.184000
     51 H20          1.3680     0.6020    -4.5620 ha         1 AQY       0.145000
     52 C1          -0.7440     0.0020     3.7100 c3         1 AQY      -0.043800
     53 N23          3.5710     1.9630    -5.0780 ns         1 AQY      -0.549400
@<TRIPOS>BOND
     1    18     5 2
     2    18    17 1
     3     5    19 1
     4    17    16 2
     5    17    21 1
     6    19    20 2
     7    16    15 1
     8    21    20 1
     9    21     6 1
    10    15     1 1
    11    15     6 2
    12    13     1 ar
    13    13    12 ar
    14    52    12 1
    15     1     2 ar
    16     6    22 1
    17    12     4 ar
    18     2     3 ar
    19     4     3 ar
    20     4    14 1
    21    22    32 ar
    22    22    23 ar
    23    32     8 ar
    24    25     9 2
    25    23     7 ar
    26     9    53 1
    27     9    10 1
    28     8    53 1
    29     8    24 ar
    30    26    10 ar
    31    26    11 ar
    32     7    24 ar
    33    10    31 ar
    34    11    27 1
    35    31    29 ar
    36    27    29 2
    37    27    28 1
    38    29    30 1
    39     2    33 1
    40     3    34 1
    41     5    35 1
    42     7    36 1
    43    11    37 1
    44    52    38 1
    45    52    39 1
    46    52    40 1
    47    13    41 1
    48    18    42 1
    49    19    43 1
    50    23    44 1
    51    53    45 1
    52    26    46 1
    53    30    47 1
    54    30    48 1
    55    30    49 1
    56    31    50 1
    57    32    51 1
@<TRIPOS>SUBSTRUCTURE
     1 AQY         1 TEMP              0 ****  ****    0 ROOT
