@<TRIPOS>MOLECULE
AQZ
   80    85     1     0     0
SMALL
bcc


@<TRIPOS>ATOM
      1 C1           0.0000     0.0000     0.0000 c3         1 AQZ       0.259700
      2 O2           1.4260     0.0000     0.0000 os         1 AQZ      -0.324900
      3 C3           2.0460     0.0000     1.2130 ca         1 AQZ       0.138100
      4 C4           2.3580     1.2190     1.8230 ca         1 AQZ      -0.177300
      5 C5           2.9910     1.2730     3.0620 ca         1 AQZ       0.425600
      6 N6           3.2830     2.4550     3.6340 nb         1 AQZ      -0.653000
      7 C7           3.8960     2.4130     4.8340 ca         1 AQZ       0.663900
      8 N8           4.2490     1.3170     5.5250 nb         1 AQZ      -0.667000
      9 C9           3.9420     0.1520     4.9260 ca         1 AQZ       0.546200
     10 N10          4.2950    -1.0320     5.6190 nu         1 AQZ      -0.332300
     11 C11          5.3340    -1.3320     6.5150 ca         1 AQZ       0.063600
     12 C12          6.5550    -0.6590     6.4050 ca         1 AQZ      -0.167000
     13 C13          7.5970    -0.9440     7.2880 ca         1 AQZ      -0.045400
     14 N14          8.8140    -0.2700     7.1730 ns         1 AQZ      -0.059100
     15 C15          9.1810     0.7230     6.2430 c          1 AQZ       0.601700
     16 O16          8.4360     1.1460     5.3620 o          1 AQZ      -0.595100
     17 C17         10.5660     1.2100     6.3640 ca         1 AQZ      -0.109600
     18 C18         10.8740     2.4890     5.9430 ca         1 AQZ      -0.183300
     19 C19         12.1910     2.9010     6.0780 ca         1 AQZ       0.422200
     20 N20         13.1760     2.1300     6.5890 nb         1 AQZ      -0.608000
     21 C21         12.8220     0.8870     6.9850 ca         1 AQZ       0.512200
     22 C22         11.5340     0.3810     6.8940 ca         1 AQZ      -0.228300
     23 N23         13.8020     0.0470     7.5220 nh         1 AQZ      -0.517300
     24 C24         15.1870     0.2120     7.0580 c3         1 AQZ       0.137300
     25 C25         15.9790    -1.0610     7.3350 c3         1 AQZ       0.202400
     26 O26         15.8860    -1.4130     8.7160 os         1 AQZ      -0.395600
     27 C27         14.5340    -1.7000     9.0720 c3         1 AQZ       0.202400
     28 C28         13.6600    -0.4630     8.8900 c3         1 AQZ       0.137300
     29 C29          7.4230    -1.9040     8.2850 ca         1 AQZ      -0.176000
     30 C30          6.2090    -2.5790     8.4000 ca         1 AQZ      -0.043000
     31 C31          5.1660    -2.2940     7.5170 ca         1 AQZ      -0.157300
     32 C32          3.8760    -3.0320     7.6630 c3         1 AQZ       0.067200
     33 C33          3.3110     0.0570     3.6890 ca         1 AQZ      -0.280600
     34 C34          3.0000    -1.1720     3.0830 ca         1 AQZ      -0.109000
     35 C35          2.3690    -1.1890     1.8470 ca         1 AQZ       0.097100
     36 O36          2.0690    -2.3910     1.2610 os         1 AQZ      -0.312900
     37 C37          1.2030    -3.2570     1.9830 c3         1 AQZ       0.200400
     38 C38          0.4130    -4.1080     1.0060 c3         1 AQZ       0.137800
     39 N39         -0.4550    -5.0300     1.7480 n3         1 AQZ      -0.533600
     40 C40         -1.2060    -5.8890     0.8300 c3         1 AQZ       0.145800
     41 C41         -2.3350    -6.4150     1.7030 c3         1 AQZ      -0.029400
     42 C42         -2.5160    -5.3650     2.7960 c3         1 AQZ      -0.029400
     43 C43         -1.4770    -4.2940     2.4950 c3         1 AQZ       0.145800
     44 H11         -0.3610    -0.1170     1.0150 h1         1 AQZ      -0.009300
     45 H12A        -0.3610    -0.8200    -0.6090 h1         1 AQZ      -0.009300
     46 H13         -0.3610     0.9370    -0.4060 h1         1 AQZ      -0.009300
     47 H4           2.1020     2.1430     1.3190 ha         1 AQZ       0.132000
     48 H7           4.1300     3.3670     5.2900 h5         1 AQZ      -0.011900
     49 H10          3.6860    -1.8040     5.4340 hn         1 AQZ       0.271800
     50 H12          6.6960     0.0810     5.6260 ha         1 AQZ       0.168000
     51 H14          9.5170    -0.5240     7.8390 hn         1 AQZ       0.165500
     52 H18         10.1180     3.1440     5.5270 ha         1 AQZ       0.141000
     53 H19         12.4460     3.9020     5.7520 h4         1 AQZ      -0.021900
     54 H22         11.2980    -0.6230     7.2250 ha         1 AQZ       0.130000
     55 H241        15.6450     1.0420     7.5830 h1         1 AQZ       0.022700
     56 H242        15.1870     0.4100     5.9930 h1         1 AQZ       0.022700
     57 H251        15.5790    -1.8680     6.7340 h1         1 AQZ       0.013200
     58 H252        17.0180    -0.8970     7.0780 h1         1 AQZ       0.013200
     59 H271        14.4970    -2.0120    10.1090 h1         1 AQZ       0.013200
     60 H272        14.1600    -2.4970     8.4400 h1         1 AQZ       0.013200
     61 H281        13.9690     0.3020     9.5920 h1         1 AQZ       0.022700
     62 H282        12.6240    -0.7260     9.0690 h1         1 AQZ       0.022700
     63 H29          8.2330    -2.1250     8.9710 ha         1 AQZ       0.106000
     64 H30          6.0750    -3.3240     9.1740 ha         1 AQZ       0.106000
     65 H321         3.0570    -2.3230     7.7080 hc         1 AQZ       0.007033
     66 H322         3.8960    -3.6180     8.5730 hc         1 AQZ       0.007033
     67 H323         3.7370    -3.6890     6.8130 hc         1 AQZ       0.007033
     68 H341         3.2530    -2.1020     3.5780 ha         1 AQZ       0.121000
     69 H371         0.5210    -2.6680     2.5840 h1         1 AQZ       0.003700
     70 H372         1.7910    -3.8990     2.6290 h1         1 AQZ       0.003700
     71 H381        -0.1940    -3.4660     0.3790 h1         1 AQZ       0.020200
     72 H382         1.0970    -4.6750     0.3870 h1         1 AQZ       0.020200
     73 H401        -0.5860    -6.7040     0.4770 h1         1 AQZ       0.014450
     74 H402        -1.6010    -5.3120     0.0030 h1         1 AQZ       0.014450
     75 H411        -3.2440    -6.5110     1.1220 hc         1 AQZ       0.019200
     76 H412        -2.0580    -7.3660     2.1410 hc         1 AQZ       0.019200
     77 H421        -2.3310    -5.8020     3.7700 hc         1 AQZ       0.019200
     78 H422        -3.5130    -4.9430     2.7490 hc         1 AQZ       0.019200
     79 H431        -1.9050    -3.5090     1.8840 h1         1 AQZ       0.014450
     80 H432        -1.0640    -3.8940     3.4130 h1         1 AQZ       0.014450
@<TRIPOS>BOND
     1     1     2 1   
     2     1    44 1   
     3     1    45 1   
     4     1    46 1   
     5     2     3 1   
     6     3     4 ar  
     7     3    35 ar  
     8     4     5 ar  
     9     4    47 1   
    10     5     6 ar  
    11     5    33 ar  
    12     6     7 ar  
    13     7     8 ar  
    14     7    48 1   
    15     8     9 ar  
    16     9    10 1   
    17     9    33 ar  
    18    10    11 1   
    19    10    49 1   
    20    11    12 ar  
    21    11    31 ar  
    22    12    13 ar  
    23    12    50 1   
    24    13    14 1   
    25    13    29 ar  
    26    14    15 1   
    27    14    51 1   
    28    15    16 2   
    29    15    17 1   
    30    17    18 ar  
    31    17    22 ar  
    32    18    19 ar  
    33    18    52 1   
    34    19    20 ar  
    35    19    53 1   
    36    20    21 ar  
    37    21    22 ar  
    38    21    23 1   
    39    22    54 1   
    40    23    24 1   
    41    23    28 1   
    42    24    25 1   
    43    24    55 1   
    44    24    56 1   
    45    25    26 1   
    46    25    57 1   
    47    25    58 1   
    48    26    27 1   
    49    27    28 1   
    50    27    59 1   
    51    27    60 1   
    52    28    61 1   
    53    28    62 1   
    54    29    30 ar  
    55    29    63 1   
    56    30    31 ar  
    57    30    64 1   
    58    31    32 1   
    59    32    65 1   
    60    32    66 1   
    61    32    67 1   
    62    33    34 ar  
    63    34    35 ar  
    64    34    68 1   
    65    35    36 1   
    66    36    37 1   
    67    37    38 1   
    68    37    69 1   
    69    37    70 1   
    70    38    39 1   
    71    38    71 1   
    72    38    72 1   
    73    39    40 1   
    74    39    43 1   
    75    40    41 1   
    76    40    73 1   
    77    40    74 1   
    78    41    42 1   
    79    41    75 1   
    80    41    76 1   
    81    42    43 1   
    82    42    77 1   
    83    42    78 1   
    84    43    79 1   
    85    43    80 1   
@<TRIPOS>SUBSTRUCTURE
     1 AQZ         1 TEMP              0 ****  ****    0 ROOT
