@<TRIPOS>MOLECULE
molecule
   63    65     1     0     0
SMALL
bcc


@<TRIPOS>ATOM
      1 CA           0.0000     0.0000     0.0000 c          1 AR1       0.663900
      2 OA           1.2130     0.0000     0.0000 o          1 AR1      -0.609100
      3 N1          -0.6740     0.0000     1.1670 ns         1 AR1      -0.534400
      4 C11          0.0270    -0.0000     2.3820 cc         1 AR1       0.417200
      5 N21         -0.5180    -0.0010     3.5990 nc         1 AR1      -0.709000
      6 C31          0.4400    -0.0070     4.5030 cd         1 AR1       0.342000
      7 N41          1.6440    -0.0010     3.8580 na         1 AR1      -0.133900
      8 CN1          2.9680    -0.0030     4.4850 c3         1 AR1       0.035600
      9 C51          1.3820    -0.0010     2.5220 cd         1 AR1      -0.238600
     10 C1           0.2450    -0.0090     5.9640 c          1 AR1       0.625600
     11 O1           1.2090    -0.0150     6.7050 o          1 AR1      -0.625100
     12 N2          -1.0000    -0.0050     6.4780 ns         1 AR1      -0.502400
     13 C12         -1.1860    -0.0060     7.8680 cc         1 AR1       0.430200
     14 N22         -2.3600     0.0040     8.4990 nc         1 AR1      -0.705000
     15 C32         -2.1520    -0.0060     9.8010 cd         1 AR1       0.337000
     16 N42         -0.8040    -0.0130    10.0230 na         1 AR1      -0.131900
     17 CN2         -0.1370    -0.0190    11.3280 c3         1 AR1       0.035600
     18 C52         -0.1970    -0.0130     8.8050 cd         1 AR1      -0.238600
     19 C2          -3.1960    -0.0040    10.8390 c          1 AR1       0.628600
     20 O2          -2.8840    -0.0080    12.0160 o          1 AR1      -0.625100
     21 N3          -4.4970     0.0040    10.4870 ns         1 AR1      -0.504400
     22 C13         -5.4900     0.0060    11.4760 cc         1 AR1       0.436200
     23 N23         -6.8070     0.0180    11.2610 nc         1 AR1      -0.711000
     24 C33         -7.4360     0.0140    12.4200 cd         1 AR1       0.323000
     25 N43         -6.5030     0.0070    13.4180 na         1 AR1      -0.127900
     26 CN3         -6.7690     0.0050    14.8580 c3         1 AR1       0.032600
     27 C53         -5.2780     0.0010    12.8220 cd         1 AR1      -0.229600
     28 C3          -8.8960     0.0210    12.6070 c          1 AR1       0.631600
     29 O3          -9.3660     0.0200    13.7290 o          1 AR1      -0.606100
     30 NT          -9.7130     0.0280    11.5340 ns         1 AR1      -0.580900
     31 C1T        -11.1660     0.0340    11.7200 c3         1 AR1       0.101000
     32 C2T        -11.8550     0.0420    10.3540 c3         1 AR1       0.076800
     33 N3T        -13.3120     0.0490    10.5410 nx         1 AR1      -0.653400
     34 CNT        -13.7170     1.3050    11.1870 c3         1 AR1       0.087100
     35 CMT        -13.9730    -0.0650     9.2340 c3         1 AR1       0.087100
     36 HA          -0.5410    -0.0000    -0.9380 h5         1 AR1       0.042200
     37 HN1         -1.6750     0.0040     1.1660 hn         1 AR1       0.333500
     38 HN11         3.7310     0.0020     3.7170 h1         1 AR1       0.066033
     39 HN12         3.0740     0.8790     5.1060 h1         1 AR1       0.066033
     40 HN13         3.0770    -0.8900     5.0960 h1         1 AR1       0.066033
     41 H51          2.1120     0.0030     1.7220 h4         1 AR1       0.230000
     42 HN2         -1.7930     0.0000     5.8670 hn         1 AR1       0.356500
     43 HN21        -0.4240     0.8660    11.8830 h1         1 AR1       0.066367
     44 HN22         0.9360    -0.0230    11.1840 h1         1 AR1       0.066367
     45 HN23        -0.4320    -0.9030    11.8800 h1         1 AR1       0.066367
     46 H52          0.8700    -0.0180     8.6160 h4         1 AR1       0.230000
     47 HN3         -4.7540    -0.0040     9.5200 hn         1 AR1       0.357500
     48 HN31        -7.3420    -0.8770    15.1180 h1         1 AR1       0.068700
     49 HN32        -5.8310    -0.0000    15.3990 h1         1 AR1       0.068700
     50 HN33        -7.3330     0.8920    15.1220 h1         1 AR1       0.068700
     51 H53         -4.3170    -0.0060    13.3230 h4         1 AR1       0.235000
     52 HT          -9.3270     0.0340    10.6110 hn         1 AR1       0.346500
     53 H1T1       -11.4640    -0.8500    12.2700 h1         1 AR1       0.067200
     54 H1T2       -11.4550     0.9190    12.2750 h1         1 AR1       0.067200
     55 H2T1       -11.5660    -0.8420     9.7990 hx         1 AR1       0.110700
     56 H2T2       -11.5570     0.9270     9.8040 hx         1 AR1       0.110700
     57 HNT        -13.5780    -0.7250    11.1180 hn         1 AR1       0.456800
     58 HNT1       -13.0740     2.1080    10.8490 hx         1 AR1       0.104533
     59 HNT2       -14.7440     1.5300    10.9260 hx         1 AR1       0.104533
     60 HNT3       -13.6320     1.2020    12.2620 hx         1 AR1       0.104533
     61 HMT1       -13.6960     0.7790     8.6150 hx         1 AR1       0.104533
     62 HMT2       -13.6630    -0.9840     8.7510 hx         1 AR1       0.104533
     63 HMT3       -15.0470    -0.0740     9.3730 hx         1 AR1       0.104533
@<TRIPOS>BOND
     1     1     2 2
     2     1     3 1
     3     1    36 1
     4     3     4 1
     5     3    37 1
     6     4     5 1
     7     4     9 2
     8     5     6 2
     9     6     7 1
    10     6    10 1
    11     7     8 1
    12     7     9 1
    13     8    38 1
    14     8    39 1
    15     8    40 1
    16     9    41 1
    17    10    11 2
    18    10    12 1
    19    12    13 1
    20    12    42 1
    21    13    14 1
    22    13    18 2
    23    14    15 2
    24    15    16 1
    25    15    19 1
    26    16    17 1
    27    16    18 1
    28    17    43 1
    29    17    44 1
    30    17    45 1
    31    18    46 1
    32    19    20 2
    33    19    21 1
    34    21    22 1
    35    21    47 1
    36    22    23 1
    37    22    27 2
    38    23    24 2
    39    24    25 1
    40    24    28 1
    41    25    26 1
    42    25    27 1
    43    26    48 1
    44    26    49 1
    45    26    50 1
    46    27    51 1
    47    28    29 2
    48    28    30 1
    49    30    31 1
    50    30    52 1
    51    31    32 1
    52    31    53 1
    53    31    54 1
    54    32    33 1
    55    32    55 1
    56    32    56 1
    57    33    34 1
    58    33    35 1
    59    33    57 1
    60    34    58 1
    61    34    59 1
    62    34    60 1
    63    35    61 1
    64    35    62 1
    65    35    63 1
@<TRIPOS>SUBSTRUCTURE
     1 AR1         1 TEMP              0 ****  ****    0 ROOT
