@<TRIPOS>MOLECULE
AR3
   30    31     1     0     0
SMALL
bcc


@<TRIPOS>ATOM
      1 O5'         0.2670   -1.3490    0.3700 oh        1 AR3     -0.591800
      2 C5'         1.6570   -1.0890    0.2920 c3        1 AR3      0.103400
      3 C4'         1.9990   -0.0580    1.3680 c3        1 AR3      0.135100
      4 O4'         1.5210   -0.4690    2.6540 os        1 AR3     -0.395600
      5 C1'         2.5820   -0.9790    3.4690 c3        1 AR3      0.269500
      6 N1          2.4720   -2.4270    3.6280 n         1 AR3     -0.392000
      7 C6          1.5130   -3.1640    2.9850 cc        1 AR3      0.077600
      8 C5          1.3610   -4.5080    3.2220 cd        1 AR3     -0.440600
      9 C4          2.2420   -5.1390    4.1990 cd        1 AR3      0.759500
     10 N3          3.1700   -4.4360    4.8810 nc        1 AR3     -0.726100
     11 C2          3.3100   -3.0750    4.6140 c         1 AR3      0.842900
     12 O2          4.1520   -2.3520    5.1970 o         1 AR3     -0.662500
     13 N4          2.1360   -6.4970    4.4000 nh        1 AR3     -0.918800
     14 C2'         3.9160   -0.4430    2.8540 c3        1 AR3      0.097100
     15 O1          4.9230   -1.4010    2.6380 oh        1 AR3     -0.600800
     16 C3'         3.5250    0.1190    1.4660 c3        1 AR3      0.111100
     17 O3'         3.7960    1.5040    1.3730 oh        1 AR3     -0.589800
     18 H5'         0.0220   -1.7860   -0.4550 ho        1 AR3      0.404000
     19 H5'1        1.9320   -0.6690   -0.7120 h1        1 AR3      0.037700
     20 H5'2        2.2230   -2.0450    0.4640 h1        1 AR3      0.037700
     21 H4'         1.4710    0.9150    1.1660 h1        1 AR3      0.111700
     22 H1'         2.4200   -0.5220    4.4930 h2        1 AR3      0.103700
     23 H6          0.8560   -2.6220    2.2690 h4        1 AR3      0.193000
     24 H5          0.5970   -5.0860    2.6920 ha        1 AR3      0.154000
     25 HN41        1.3360   -6.9580    4.0450 hn        1 AR3      0.437800
     26 HN42        2.6500   -6.9330    5.1270 hn        1 AR3      0.437800
     27 H2'         4.2920    0.3780    3.5240 h1        1 AR3      0.070700
     28 HO1         5.2340   -1.6990    3.5080 ho        1 AR3      0.445000
     29 H3'         4.0670   -0.4380    0.6540 h1        1 AR3      0.073700
     30 H1          4.7560    1.6020    1.4180 ho        1 AR3      0.414000
@<TRIPOS>BOND
     1    1    2 1   
     2    1   18 1   
     3    2    3 1   
     4    2   19 1   
     5    2   20 1   
     6    3    4 1   
     7    3   16 1   
     8    3   21 1   
     9    4    5 1   
    10    5    6 1   
    11    5   14 1   
    12    5   22 1   
    13    6    7 1   
    14    6   11 1   
    15    7    8 2   
    16    7   23 1   
    17    8    9 1   
    18    8   24 1   
    19    9   10 2   
    20    9   13 1   
    21   10   11 1   
    22   11   12 2   
    23   13   25 1   
    24   13   26 1   
    25   14   15 1   
    26   14   16 1   
    27   14   27 1   
    28   15   28 1   
    29   16   17 1   
    30   16   29 1   
    31   17   30 1   
@<TRIPOS>SUBSTRUCTURE
     1 AR3         1 TEMP              0 ****  ****    0 ROOT
