@<TRIPOS>MOLECULE
AR5
   41    40     1     0     0
SMALL
bcc


@<TRIPOS>ATOM
      1 O3           0.0000     0.0000     0.0000 o          1 AR5      -0.659000
      2 C6           1.2150     0.0000     0.0000 c          1 AR5       0.681100
      3 O2           1.8890     0.0000     1.1650 os         1 AR5      -0.434900
      4 C7           1.0980    -0.0000     2.3840 c3         1 AR5       0.199800
      5 C10          0.2160    -1.2490     2.4190 c3         1 AR5      -0.033433
      6 C9           2.0310    -0.0000     3.5960 c3         1 AR5      -0.033433
      7 C8           0.2170     1.2490     2.4190 c3         1 AR5      -0.033433
      8 N3           1.8880    -0.0070    -1.1670 ns         1 AR5      -0.134900
      9 C4           1.1550    -0.0130    -2.4360 c3         1 AR5      -0.089300
     10 C5           0.7950    -1.4290    -2.8030 c          1 AR5       0.969600
     11 O1           0.1170    -1.6790    -3.9330 o          1 AR5      -0.870300
     12 O            1.1200    -2.3410    -2.0780 o          1 AR5      -0.870300
     13 C3           2.0320     0.5920    -3.5340 c3         1 AR5      -0.015400
     14 C2           2.2930     2.0670    -3.2250 c3         1 AR5      -0.047400
     15 C1           3.1700     2.6710    -4.3250 c3         1 AR5       0.155800
     16 N2           3.4210     4.0840    -4.0280 nu         1 AR5      -0.474200
     17 C            4.1900     4.8390    -4.8820 c2         1 AR5       0.239100
     18 N1           4.6960     4.2990    -5.9530 n2         1 AR5      -0.652100
     19 N            4.4250     6.1660    -4.6030 nz         1 AR5       0.196400
     20 H1           0.7740    -2.0960     2.0390 hc         1 AR5       0.017367
     21 H2          -0.0900    -1.4460     3.4390 hc         1 AR5       0.017367
     22 H3          -0.6610    -1.0890     1.8030 hc         1 AR5       0.017367
     23 H4           2.7960     0.7550     3.4630 hc         1 AR5       0.017367
     24 H5           1.4610     0.2180     4.4910 hc         1 AR5       0.017367
     25 H6           2.4970    -0.9730     3.6930 hc         1 AR5       0.017367
     26 H7          -0.2210     1.3550     3.4040 hc         1 AR5       0.017367
     27 H8          -0.5720     1.1560     1.6820 hc         1 AR5       0.017367
     28 H9           0.8190     2.1220     2.1950 hc         1 AR5       0.017367
     29 H10          2.8880     0.0330    -1.1680 hn         1 AR5       0.149500
     30 H11          0.2500     0.5740    -2.3330 h1         1 AR5       0.055700
     31 H13          1.5250     0.5070    -4.4880 hc         1 AR5       0.037700
     32 H14          2.9740     0.0590    -3.5780 hc         1 AR5       0.037700
     33 H15          2.8000     2.1520    -2.2710 hc         1 AR5       0.022700
     34 H16          1.3510     2.5990    -3.1820 hc         1 AR5       0.022700
     35 H17          4.1120     2.1390    -4.3680 h1         1 AR5       0.034700
     36 H18          2.6630     2.5870    -5.2780 h1         1 AR5       0.034700
     37 H19          3.0320     4.5000    -3.2050 hn         1 AR5       0.304800
     38 H20          4.5260     3.3340    -6.1580 hn         1 AR5       0.393400
     39 H22          5.0430     6.5480    -5.2910 hn         1 AR5       0.218467
     40 H23          3.5590     6.6680    -4.6170 hn         1 AR5       0.218467
     41 HN3          4.8430     6.2480    -3.6970 hn         1 AR5       0.218467
@<TRIPOS>BOND
     1     1     2 2   
     2     2     3 1   
     3     2     8 1   
     4     3     4 1   
     5     4     5 1   
     6     4     6 1   
     7     4     7 1   
     8     5    20 1   
     9     5    21 1   
    10     5    22 1   
    11     6    23 1   
    12     6    24 1   
    13     6    25 1   
    14     7    26 1   
    15     7    27 1   
    16     7    28 1   
    17     8     9 1   
    18     8    29 1   
    19     9    10 1   
    20     9    13 1   
    21     9    30 1   
    22    10    11 1   
    23    10    12 1   
    24    13    14 1   
    25    13    31 1   
    26    13    32 1   
    27    14    15 1   
    28    14    33 1   
    29    14    34 1   
    30    15    16 1   
    31    15    35 1   
    32    15    36 1   
    33    16    17 1   
    34    16    37 1   
    35    17    18 2   
    36    17    19 1   
    37    18    38 1   
    38    19    39 1   
    39    19    40 1   
    40    19    41 1   
@<TRIPOS>SUBSTRUCTURE
     1 AR5         1 TEMP              0 ****  ****    0 ROOT
