@<TRIPOS>MOLECULE
molecule
   41    40     1     0     0
SMALL
bcc


@<TRIPOS>ATOM
      1 O3           0.0000     0.0000     0.0000 o          1 AR5      -0.614000
      2 C6           1.2150     0.0000     0.0000 c          1 AR5       0.754100
      3 O2           1.8890     0.0000     1.1650 os         1 AR5      -0.453900
      4 C7           1.0980    -0.0000     2.3840 c3         1 AR5       0.182800
      5 C10          0.2160    -1.2490     2.4190 c3         1 AR5      -0.105100
      6 C9           2.0310    -0.0000     3.5960 c3         1 AR5      -0.105100
      7 C8           0.2170     1.2490     2.4190 c3         1 AR5      -0.105100
      8 N3           1.8880    -0.0070    -1.1670 ns         1 AR5      -0.548900
      9 C4           1.1550    -0.0130    -2.4360 c3         1 AR5       0.023700
     10 C5           0.7950    -1.4290    -2.8030 c          1 AR5       0.881600
     11 O1           0.1170    -1.6790    -3.9330 o          1 AR5      -0.820800
     12 O            1.1200    -2.3410    -2.0780 o          1 AR5      -0.820800
     13 C3           2.0320     0.5920    -3.5340 c3         1 AR5      -0.068400
     14 C2           2.2930     2.0670    -3.2250 c3         1 AR5      -0.110400
     15 C1           3.1700     2.6710    -4.3250 c3         1 AR5       0.233800
     16 N2           3.4210     4.0840    -4.0280 nu         1 AR5      -0.840200
     17 C            4.1900     4.8390    -4.8820 c2         1 AR5       0.681100
     18 N1           4.6960     4.2990    -5.9530 n2         1 AR5      -0.789100
     19 N            4.4250     6.1660    -4.6030 nz         1 AR5      -0.809600
     20 H1          -0.0770    -1.4560     3.4410 hc         1 AR5       0.046367
     21 H2           0.7690    -2.0930     2.0240 hc         1 AR5       0.046367
     22 H3          -0.6690    -1.0830     1.8160 hc         1 AR5       0.046367
     23 H4           2.6560     0.8850     3.5710 hc         1 AR5       0.046367
     24 H5           1.4420    -0.0010     4.5050 hc         1 AR5       0.046367
     25 H6           2.6560    -0.8840     3.5700 hc         1 AR5       0.046367
     26 H7           0.7790     2.0980     2.0490 hc         1 AR5       0.046367
     27 H8          -0.0980     1.4410     3.4380 hc         1 AR5       0.046367
     28 H9          -0.6550     1.0940     1.7950 hc         1 AR5       0.046367
     29 H10          2.8880    -0.0480    -1.1680 hn         1 AR5       0.301500
     30 H11          0.2500     0.5740    -2.3330 h1         1 AR5       0.074700
     31 H13          1.5250     0.5070    -4.4880 hc         1 AR5       0.066700
     32 H14          2.9740     0.0590    -3.5780 hc         1 AR5       0.066700
     33 H15          1.3510     2.5990    -3.1810 hc         1 AR5       0.048700
     34 H16          2.8000     2.1520    -2.2710 hc         1 AR5       0.048700
     35 H17          2.6630     2.5870    -5.2780 h1         1 AR5       0.074700
     36 H18          4.1120     2.1390    -4.3690 h1         1 AR5       0.074700
     37 H19          2.9960     4.5100    -3.2280 hn         1 AR5       0.452800
     38 H20          5.2560     4.8480    -6.5750 hn         1 AR5       0.427400
     39 H22          5.3000     6.4410    -5.0030 hn         1 AR5       0.460800
     40 H23          4.4550     6.2980    -3.6110 hn         1 AR5       0.460800
     41 HN3          3.6900     6.7230    -4.9910 hn         1 AR5       0.460800
@<TRIPOS>BOND
     1    11    10 1
     2    12    10 1
     3    10     9 1
     4     7     4 1
     5     1     2 2
     6     6     4 1
     7     9     8 1
     8     9    13 1
     9     2     8 1
    10     2     3 1
    11     4     3 1
    12     4     5 1
    13    13    14 1
    14    16    15 1
    15    16    17 1
    16    15    14 1
    17    17    18 2
    18    17    19 1
    19     5    20 1
    20     5    21 1
    21     5    22 1
    22     6    23 1
    23     6    24 1
    24     6    25 1
    25     7    26 1
    26     7    27 1
    27     7    28 1
    28     8    29 1
    29     9    30 1
    30    13    31 1
    31    13    32 1
    32    14    33 1
    33    14    34 1
    34    15    35 1
    35    15    36 1
    36    16    37 1
    37    18    38 1
    38    19    39 1
    39    19    40 1
    40    41    19 1
@<TRIPOS>SUBSTRUCTURE
     1 AR5         1 TEMP              0 ****  ****    0 ROOT
