@<TRIPOS>MOLECULE
AR9
   76    76     1     0     0
SMALL
bcc


@<TRIPOS>ATOM
      1 N1           0.0000     0.0000     0.0000 ns         1 AR9      -0.128900
      2 C3           1.4560     0.0000     0.0000 c3         1 AR9      -0.057300
      3 C5           1.9460     0.0000     1.4550 c3         1 AR9      -0.053400
      4 C8           3.3960     0.4790     1.5210 c3         1 AR9      -0.051700
      5 C10          3.4760     1.7390     2.3870 c3         1 AR9      -0.035400
      6 C13          4.6240     2.6250     1.8970 c3         1 AR9      -0.034400
      7 C16          4.1720     4.0880     1.8960 c3         1 AR9      -0.033400
      8 C19          3.8690     4.5250     0.4610 c3         1 AR9      -0.039400
      9 C22          2.5040     5.2160     0.4180 c3         1 AR9      -0.024400
     10 C25          2.0840     5.4210    -1.0400 c3         1 AR9      -0.018400
     11 C28          0.6620     4.8980    -1.2420 c3         1 AR9      -0.113400
     12 C31          0.6890     3.3880    -1.3660 c          1 AR9       0.591100
     13 N32         -0.4880     2.7810    -1.6790 ns         1 AR9      -0.196900
     14 C34         -0.5280     1.3670    -2.0840 c3         1 AR9      -0.024300
     15 C36         -0.8280     0.4780    -0.9210 c          1 AR9       0.536100
     16 O37         -2.0130     0.1330    -0.7980 o          1 AR9      -0.682100
     17 C38          0.6660     0.9280    -2.9110 c3         1 AR9      -0.048100
     18 O42          1.7260     2.8050    -1.1590 o          1 AR9      -0.638100
     19 C43          4.2670    -0.6140     2.1460 c3         1 AR9      -0.004100
     20 C47          1.9650    -1.2780    -0.6800 c3         1 AR9       0.169100
     21 O49          3.3880    -1.2220    -0.7960 oh         1 AR9      -0.576800
     22 C51          1.5690    -2.4940     0.1590 c3         1 AR9      -0.047400
     23 C54          1.9400    -3.7740    -0.5910 c3         1 AR9      -0.115700
     24 C56          3.4590    -3.8440    -0.7620 c3         1 AR9      -0.000100
     25 C60          1.4680    -4.9720     0.1930 c          1 AR9       0.575100
     26 O61          0.8910    -4.8160     1.2490 o          1 AR9      -0.648100
     27 N62          1.6860    -6.2150    -0.2790 ns         1 AR9      -0.200900
     28 C64          1.2270    -7.3790     0.4830 c3         1 AR9       0.049000
     29 C67          1.5980    -8.6590    -0.2670 c3         1 AR9      -0.043400
     30 C70          1.1190    -9.8750     0.5280 c3         1 AR9      -0.021400
     31 C73          1.4900   -11.1550    -0.2220 c3         1 AR9       0.005900
     32 HN1         -0.4340    -0.4150     0.8000 hn         1 AR9       0.185500
     33 H3           1.8300     0.8740    -0.5200 h1         1 AR9       0.098700
     34 H5           1.8820    -1.0050     1.8560 hc         1 AR9       0.035200
     35 H5A          1.3230     0.6620     2.0440 hc         1 AR9       0.035200
     36 H8           3.7510     0.7010     0.5220 hc         1 AR9       0.054700
     37 H10          3.6530     1.4570     3.4180 hc         1 AR9       0.019200
     38 H10A         2.5440     2.2850     2.3170 hc         1 AR9       0.019200
     39 H13          4.9040     2.3320     0.8930 hc         1 AR9       0.018200
     40 H13A         5.4760     2.5110     2.5570 hc         1 AR9       0.018200
     41 H16          3.2800     4.1910     2.5010 hc         1 AR9       0.014700
     42 H16A         4.9590     4.7100     2.3050 hc         1 AR9       0.014700
     43 H19          4.6340     5.2140     0.1240 hc         1 AR9       0.025700
     44 H19A         3.8550     3.6560    -0.1860 hc         1 AR9       0.025700
     45 H22          1.7700     4.5980     0.9220 hc         1 AR9       0.013700
     46 H22A         2.5690     6.1770     0.9140 hc         1 AR9       0.013700
     47 H25          2.7630     4.8820    -1.6900 hc         1 AR9       0.024200
     48 H25A         2.1180     6.4770    -1.2800 hc         1 AR9       0.024200
     49 H28          0.2450     5.3270    -2.1450 hc         1 AR9       0.030200
     50 H28A         0.0500     5.1800    -0.3930 hc         1 AR9       0.030200
     51 HN32        -1.3390     3.3060    -1.6370 hn         1 AR9       0.190500
     52 H34         -1.3820     1.2790    -2.7440 h1         1 AR9       0.048700
     53 H38          1.5810     1.2200    -2.4090 hc         1 AR9       0.030033
     54 H38A         0.6230     1.3990    -3.8860 hc         1 AR9       0.030033
     55 H38B         0.6470    -0.1490    -3.0300 hc         1 AR9       0.030033
     56 H43          5.0610    -0.1560     2.7240 hc         1 AR9       0.006700
     57 H43A         3.6600    -1.2340     2.7940 hc         1 AR9       0.006700
     58 H43B         4.6980    -1.2250     1.3620 hc         1 AR9       0.006700
     59 H47          1.5250    -1.3610    -1.6660 h1         1 AR9       0.004700
     60 HO49         3.6260    -1.1110    -1.7010 ho         1 AR9       0.387000
     61 H51          2.0940    -2.4660     1.1060 hc         1 AR9       0.051200
     62 H51A         0.5010    -2.4770     0.3380 hc         1 AR9       0.051200
     63 H54          1.4670    -3.7720    -1.5660 hc         1 AR9       0.031700
     64 H56          3.9400    -3.4270     0.1150 hc         1 AR9       0.011700
     65 H56A         3.7610    -4.8770    -0.8820 hc         1 AR9       0.011700
     66 H56B         3.7500    -3.2770    -1.6380 hc         1 AR9       0.011700
     67 HN62         2.1370    -6.3430    -1.1630 hn         1 AR9       0.175500
     68 H64          1.7000    -7.3820     1.4580 h1         1 AR9       0.027200
     69 H64A         0.1520    -7.3300     0.6040 h1         1 AR9       0.027200
     70 H67          1.1260    -8.6560    -1.2420 hc         1 AR9       0.016200
     71 H67A         2.6740    -8.7080    -0.3880 hc         1 AR9       0.016200
     72 H70          0.0440    -9.8260     0.6490 hc         1 AR9       0.016700
     73 H70A         1.5920    -9.8780     1.5030 hc         1 AR9       0.016700
     74 H73          1.0100   -11.1570    -1.1930 hc         1 AR9       0.001367
     75 H73A         1.1580   -12.0160     0.3460 hc         1 AR9       0.001367
     76 H73B         2.5650   -11.2000    -0.3500 hc         1 AR9       0.001367
@<TRIPOS>BOND
     1     1     2 1   
     2     1    15 1   
     3     1    32 1   
     4     2     3 1   
     5     2    20 1   
     6     2    33 1   
     7     3     4 1   
     8     3    34 1   
     9     3    35 1   
    10     4     5 1   
    11     4    19 1   
    12     4    36 1   
    13     5     6 1   
    14     5    37 1   
    15     5    38 1   
    16     6     7 1   
    17     6    39 1   
    18     6    40 1   
    19     7     8 1   
    20     7    41 1   
    21     7    42 1   
    22     8     9 1   
    23     8    43 1   
    24     8    44 1   
    25     9    10 1   
    26     9    45 1   
    27     9    46 1   
    28    10    11 1   
    29    10    47 1   
    30    10    48 1   
    31    11    12 1   
    32    11    49 1   
    33    11    50 1   
    34    12    13 1   
    35    12    18 2   
    36    13    14 1   
    37    13    51 1   
    38    14    15 1   
    39    14    17 1   
    40    14    52 1   
    41    15    16 2   
    42    17    53 1   
    43    17    54 1   
    44    17    55 1   
    45    19    56 1   
    46    19    57 1   
    47    19    58 1   
    48    20    21 1   
    49    20    22 1   
    50    20    59 1   
    51    21    60 1   
    52    22    23 1   
    53    22    61 1   
    54    22    62 1   
    55    23    24 1   
    56    23    25 1   
    57    23    63 1   
    58    24    64 1   
    59    24    65 1   
    60    24    66 1   
    61    25    26 2   
    62    25    27 1   
    63    27    28 1   
    64    27    67 1   
    65    28    29 1   
    66    28    68 1   
    67    28    69 1   
    68    29    30 1   
    69    29    70 1   
    70    29    71 1   
    71    30    31 1   
    72    30    72 1   
    73    30    73 1   
    74    31    74 1   
    75    31    75 1   
    76    31    76 1   
@<TRIPOS>SUBSTRUCTURE
     1 AR9         1 TEMP              0 ****  ****    0 ROOT
