@<TRIPOS>MOLECULE
molecule
   76    76     1     0     0
SMALL
bcc


@<TRIPOS>ATOM
      1 N1           0.0000     0.0000     0.0000 ns         1 AR9      -0.545900
      2 C3           1.4560     0.0000     0.0000 c3         1 AR9       0.074700
      3 C5           1.9460     0.0000     1.4550 c3         1 AR9      -0.090400
      4 C8           3.3960     0.4790     1.5210 c3         1 AR9      -0.063700
      5 C10          3.4760     1.7390     2.3870 c3         1 AR9      -0.079400
      6 C13          4.6240     2.6250     1.8970 c3         1 AR9      -0.080400
      7 C16          4.1720     4.0880     1.8960 c3         1 AR9      -0.083400
      8 C19          3.8690     4.5250     0.4610 c3         1 AR9      -0.081400
      9 C22          2.5040     5.2160     0.4180 c3         1 AR9      -0.074400
     10 C25          2.0840     5.4210    -1.0400 c3         1 AR9      -0.070400
     11 C28          0.6620     4.8980    -1.2420 c3         1 AR9      -0.169400
     12 C31          0.6890     3.3880    -1.3660 c          1 AR9       0.672100
     13 N32         -0.4880     2.7810    -1.6790 ns         1 AR9      -0.586900
     14 C34         -0.5280     1.3670    -2.0840 c3         1 AR9       0.062700
     15 C36         -0.8280     0.4780    -0.9210 c          1 AR9       0.637100
     16 O37         -2.0130     0.1330    -0.7980 o          1 AR9      -0.642100
     17 C38          0.6660     0.9280    -2.9110 c3         1 AR9      -0.122100
     18 O42          1.7260     2.8050    -1.1590 o          1 AR9      -0.602100
     19 C43          4.2670    -0.6140     2.1460 c3         1 AR9      -0.087100
     20 C47          1.9650    -1.2780    -0.6800 c3         1 AR9       0.126100
     21 O49          3.3880    -1.2220    -0.7960 oh         1 AR9      -0.599800
     22 C51          1.5690    -2.4940     0.1590 c3         1 AR9      -0.073400
     23 C54          1.9400    -3.7740    -0.5910 c3         1 AR9      -0.147700
     24 C56          3.4590    -3.8440    -0.7620 c3         1 AR9      -0.079100
     25 C60          1.4680    -4.9720     0.1930 c          1 AR9       0.662100
     26 O61          0.8910    -4.8160     1.2490 o          1 AR9      -0.610100
     27 N62          1.6860    -6.2150    -0.2790 ns         1 AR9      -0.587900
     28 C64          1.2270    -7.3790     0.4830 c3         1 AR9       0.111000
     29 C67          1.5980    -8.6590    -0.2670 c3         1 AR9      -0.101400
     30 C70          1.1190    -9.8750     0.5280 c3         1 AR9      -0.080400
     31 C73          1.4900   -11.1550    -0.2220 c3         1 AR9      -0.092100
     32 HN1         -0.4340    -0.4150     0.8000 hn         1 AR9       0.326500
     33 H3           1.8300     0.8740    -0.5200 h1         1 AR9       0.109700
     34 H5           1.8820    -1.0050     1.8560 hc         1 AR9       0.052700
     35 H5A          1.3230     0.6620     2.0440 hc         1 AR9       0.052700
     36 H8           3.7510     0.7010     0.5220 hc         1 AR9       0.069700
     37 H10          3.6530     1.4570     3.4180 hc         1 AR9       0.041200
     38 H10A         2.5440     2.2850     2.3170 hc         1 AR9       0.041200
     39 H13          4.9040     2.3320     0.8930 hc         1 AR9       0.042200
     40 H13A         5.4760     2.5110     2.5570 hc         1 AR9       0.042200
     41 H16          3.2800     4.1910     2.5010 hc         1 AR9       0.038700
     42 H16A         4.9590     4.7100     2.3050 hc         1 AR9       0.038700
     43 H19          4.6340     5.2140     0.1240 hc         1 AR9       0.049200
     44 H19A         3.8550     3.6560    -0.1860 hc         1 AR9       0.049200
     45 H22          1.7700     4.5980     0.9220 hc         1 AR9       0.039700
     46 H22A         2.5690     6.1770     0.9140 hc         1 AR9       0.039700
     47 H25          2.7630     4.8820    -1.6900 hc         1 AR9       0.051200
     48 H25A         2.1180     6.4770    -1.2800 hc         1 AR9       0.051200
     49 H28          0.2450     5.3270    -2.1450 hc         1 AR9       0.060700
     50 H28A         0.0500     5.1800    -0.3930 hc         1 AR9       0.060700
     51 HN32        -1.3390     3.3060    -1.6370 hn         1 AR9       0.332500
     52 H34         -1.3820     1.2790    -2.7440 h1         1 AR9       0.078700
     53 H38          1.5810     1.2200    -2.4090 hc         1 AR9       0.057367
     54 H38A         0.6230     1.3990    -3.8860 hc         1 AR9       0.057367
     55 H38B         0.6470    -0.1490    -3.0300 hc         1 AR9       0.057367
     56 H43          5.0610    -0.1560     2.7240 hc         1 AR9       0.034700
     57 H43A         3.6600    -1.2340     2.7940 hc         1 AR9       0.034700
     58 H43B         4.6980    -1.2250     1.3620 hc         1 AR9       0.034700
     59 H47          1.5250    -1.3610    -1.6660 h1         1 AR9       0.031700
     60 HO49         3.6260    -1.1110    -1.7010 ho         1 AR9       0.399000
     61 H51          2.0940    -2.4660     1.1060 hc         1 AR9       0.073700
     62 H51A         0.5010    -2.4770     0.3380 hc         1 AR9       0.073700
     63 H54          1.4670    -3.7720    -1.5660 hc         1 AR9       0.058700
     64 H56          3.9400    -3.4270     0.1150 hc         1 AR9       0.040367
     65 H56A         3.7610    -4.8770    -0.8820 hc         1 AR9       0.040367
     66 H56B         3.7500    -3.2770    -1.6380 hc         1 AR9       0.040367
     67 HN62         2.1370    -6.3430    -1.1630 hn         1 AR9       0.312500
     68 H64          1.7000    -7.3820     1.4580 h1         1 AR9       0.053700
     69 H64A         0.1520    -7.3300     0.6040 h1         1 AR9       0.053700
     70 H67          1.1260    -8.6560    -1.2420 hc         1 AR9       0.044200
     71 H67A         2.6740    -8.7080    -0.3880 hc         1 AR9       0.044200
     72 H70          0.0440    -9.8260     0.6490 hc         1 AR9       0.045200
     73 H70A         1.5920    -9.8780     1.5030 hc         1 AR9       0.045200
     74 H73          1.0100   -11.1570    -1.1930 hc         1 AR9       0.034700
     75 H73A         1.1580   -12.0160     0.3460 hc         1 AR9       0.034700
     76 H73B         2.5650   -11.2000    -0.3500 hc         1 AR9       0.034700
@<TRIPOS>BOND
     1     1     2 1
     2     1    15 1
     3     2     3 1
     4     2    20 1
     5     3     4 1
     6     4     5 1
     7     4    19 1
     8     5     6 1
     9     6     7 1
    10     7     8 1
    11     8     9 1
    12     9    10 1
    13    10    11 1
    14    11    12 1
    15    12    13 1
    16    12    18 2
    17    13    14 1
    18    14    15 1
    19    14    17 1
    20    15    16 2
    21    20    21 1
    22    20    22 1
    23    22    23 1
    24    23    24 1
    25    23    25 1
    26    25    26 2
    27    25    27 1
    28    27    28 1
    29    28    29 1
    30    29    30 1
    31    30    31 1
    32     1    32 1
    33     2    33 1
    34     3    34 1
    35     3    35 1
    36     4    36 1
    37     5    37 1
    38     5    38 1
    39     6    39 1
    40     6    40 1
    41     7    41 1
    42     7    42 1
    43     8    43 1
    44     8    44 1
    45     9    45 1
    46     9    46 1
    47    10    47 1
    48    10    48 1
    49    11    49 1
    50    11    50 1
    51    13    51 1
    52    14    52 1
    53    17    53 1
    54    17    54 1
    55    17    55 1
    56    19    56 1
    57    19    57 1
    58    19    58 1
    59    20    59 1
    60    21    60 1
    61    22    61 1
    62    22    62 1
    63    23    63 1
    64    24    64 1
    65    24    65 1
    66    24    66 1
    67    27    67 1
    68    28    68 1
    69    28    69 1
    70    29    70 1
    71    29    71 1
    72    30    72 1
    73    30    73 1
    74    31    74 1
    75    31    75 1
    76    31    76 1
@<TRIPOS>SUBSTRUCTURE
     1 AR9         1 TEMP              0 ****  ****    0 ROOT
