@<TRIPOS>MOLECULE
ARC
   63    62     1     0     0
SMALL
bcc


@<TRIPOS>ATOM
      1 O1          0.5720   -2.3480    1.0450 oh        1 ARC     -0.602800
      2 C1          1.7190   -1.6220    0.6270 c3        1 ARC      0.131400
      3 C2          2.2410   -0.8830    1.8480 c3        1 ARC     -0.081400
      4 C3          3.5910   -0.2350    1.5790 c3        1 ARC     -0.064700
      5 C4          3.4620    0.8950    0.5780 c3        1 ARC     -0.091100
      6 C5          4.1860    0.2660    2.8900 c3        1 ARC     -0.076400
      7 C6          5.6790    0.5020    2.7910 c3        1 ARC     -0.079400
      8 C7          6.2400    0.9750    4.1150 c3        1 ARC     -0.076400
      9 C8          7.7520    1.1630    4.0710 c3        1 ARC     -0.064700
     10 C9          8.1200    2.3970    3.2740 c3        1 ARC     -0.089100
     11 C10         8.3010    1.2480    5.4890 c3        1 ARC     -0.076400
     12 C11         9.8020    1.0470    5.5400 c3        1 ARC     -0.079400
     13 C12        10.3030    1.0740    6.9680 c3        1 ARC     -0.076400
     14 C13        11.8050    0.8340    7.0600 c3        1 ARC     -0.064700
     15 C14        12.5750    2.0580    6.6090 c3        1 ARC     -0.089100
     16 C15        12.1790    0.4500    8.4860 c3        1 ARC     -0.076400
     17 C16        13.5720   -0.1380    8.5790 c3        1 ARC     -0.079400
     18 C17        13.8760   -0.5880    9.9930 c3        1 ARC     -0.076400
     19 C18        15.2860   -1.1420   10.1330 c3        1 ARC     -0.067700
     20 C19        15.6860   -1.1830   11.5950 c3        1 ARC     -0.089600
     21 C20        15.4010   -2.5240    9.5240 c3        1 ARC     -0.089600
     22 HO1         0.2350   -2.8020    0.2650 ho        1 ARC      0.398000
     23 H11         1.4370   -0.9010   -0.1870 h1        1 ARC      0.020200
     24 H12         2.4940   -2.3310    0.2300 h1        1 ARC      0.020200
     25 H21         2.3310   -1.6140    2.6940 hc        1 ARC      0.055700
     26 H22         1.4970   -0.1050    2.1580 hc        1 ARC      0.055700
     27 H3          4.2820   -1.0160    1.1510 hc        1 ARC      0.046700
     28 H41         2.7390    1.6630    0.9430 hc        1 ARC      0.034033
     29 H42         3.1000    0.5060   -0.4040 hc        1 ARC      0.034033
     30 H43         4.4500    1.3890    0.4160 hc        1 ARC      0.034033
     31 H51         3.9910   -0.4890    3.6980 hc        1 ARC      0.042200
     32 H52         3.6720    1.2160    3.1930 hc        1 ARC      0.042200
     33 H61         6.1900   -0.4480    2.4830 hc        1 ARC      0.040700
     34 H62         5.8900    1.2640    1.9950 hc        1 ARC      0.040700
     35 H71         5.7530    1.9420    4.4070 hc        1 ARC      0.040200
     36 H72         5.9830    0.2220    4.9070 hc        1 ARC      0.040200
     37 H8          8.2060    0.2630    3.5670 hc        1 ARC      0.047700
     38 H91         7.6860    3.3130    3.7430 hc        1 ARC      0.033367
     39 H92         9.2290    2.5160    3.2280 hc        1 ARC      0.033367
     40 H93         7.7330    2.3180    2.2290 hc        1 ARC      0.033367
     41 H101        8.0390    2.2440    5.9310 hc        1 ARC      0.039700
     42 H102        7.8100    0.4630    6.1250 hc        1 ARC      0.039700
     43 H111       10.0660    0.0640    5.0670 hc        1 ARC      0.040700
     44 H112       10.3110    1.8490    4.9440 hc        1 ARC      0.040700
     45 H121       10.0540    2.0620    7.4370 hc        1 ARC      0.039700
     46 H122        9.7640    0.2830    7.5560 hc        1 ARC      0.039700
     47 H13        12.0700   -0.0250    6.3800 hc        1 ARC      0.047700
     48 H141       13.6740    1.8610    6.6380 hc        1 ARC      0.033367
     49 H142       12.2970    2.3330    5.5640 hc        1 ARC      0.033367
     50 H143       12.3550    2.9290    7.2740 hc        1 ARC      0.033367
     51 H151       12.1060    1.3530    9.1460 hc        1 ARC      0.039200
     52 H152       11.4420   -0.3040    8.8710 hc        1 ARC      0.039200
     53 H161       14.3290    0.6240    8.2580 hc        1 ARC      0.040700
     54 H162       13.6590   -1.0090    7.8770 hc        1 ARC      0.040700
     55 H171       13.1350   -1.3690   10.3090 hc        1 ARC      0.039700
     56 H172       13.7540    0.2850   10.6880 hc        1 ARC      0.039700
     57 H18        15.9950   -0.4540    9.5910 hc        1 ARC      0.045700
     58 H191       16.7160   -1.6000   11.7030 hc        1 ARC      0.033033
     59 H192       15.6710   -0.1560   12.0330 hc        1 ARC      0.033033
     60 H193       14.9820   -1.8260   12.1750 hc        1 ARC      0.033033
     61 H201       14.7090   -3.2370   10.0320 hc        1 ARC      0.033033
     62 H202       15.1460   -2.4960    8.4370 hc        1 ARC      0.033033
     63 H203       16.4440   -2.9080    9.6320 hc        1 ARC      0.033033
@<TRIPOS>BOND
     1    1    2 1   
     2    1   22 1   
     3    2    3 1   
     4    2   23 1   
     5    2   24 1   
     6    3    4 1   
     7    3   25 1   
     8    3   26 1   
     9    4    5 1   
    10    4    6 1   
    11    4   27 1   
    12    5   28 1   
    13    5   29 1   
    14    5   30 1   
    15    6    7 1   
    16    6   31 1   
    17    6   32 1   
    18    7    8 1   
    19    7   33 1   
    20    7   34 1   
    21    8    9 1   
    22    8   35 1   
    23    8   36 1   
    24    9   10 1   
    25    9   11 1   
    26    9   37 1   
    27   10   38 1   
    28   10   39 1   
    29   10   40 1   
    30   11   12 1   
    31   11   41 1   
    32   11   42 1   
    33   12   13 1   
    34   12   43 1   
    35   12   44 1   
    36   13   14 1   
    37   13   45 1   
    38   13   46 1   
    39   14   15 1   
    40   14   16 1   
    41   14   47 1   
    42   15   48 1   
    43   15   49 1   
    44   15   50 1   
    45   16   17 1   
    46   16   51 1   
    47   16   52 1   
    48   17   18 1   
    49   17   53 1   
    50   17   54 1   
    51   18   19 1   
    52   18   55 1   
    53   18   56 1   
    54   19   20 1   
    55   19   21 1   
    56   19   57 1   
    57   20   58 1   
    58   20   59 1   
    59   20   60 1   
    60   21   61 1   
    61   21   62 1   
    62   21   63 1   
@<TRIPOS>SUBSTRUCTURE
     1 ARC         1 TEMP              0 ****  ****    0 ROOT
