@<TRIPOS>MOLECULE
molecule
   63    62     1     0     0
SMALL
bcc


@<TRIPOS>ATOM
      1 O1           0.0000     0.0000     0.0000 oh         1 ARC      -0.612800
      2 C1           1.4280     0.0000     0.0000 c3         1 ARC       0.137400
      3 C2           1.9390     0.0000     1.4420 c3         1 ARC      -0.076400
      4 C3           3.4690     0.0010     1.4420 c3         1 ARC      -0.074700
      5 C4           3.9770     1.2490     0.7200 c3         1 ARC      -0.097100
      6 C5           3.9790     0.0010     2.8830 c3         1 ARC      -0.075400
      7 C6           5.5090     0.0020     2.8840 c3         1 ARC      -0.085400
      8 C7           6.0200     0.0020     4.3250 c3         1 ARC      -0.077400
      9 C8           7.5490     0.0030     4.3270 c3         1 ARC      -0.073700
     10 C9           8.0580     1.2520     3.6050 c3         1 ARC      -0.092100
     11 C10          8.0600     0.0030     5.7670 c3         1 ARC      -0.077400
     12 C11          9.5890     0.0040     5.7680 c3         1 ARC      -0.086400
     13 C12         10.0990     0.0040     7.2100 c3         1 ARC      -0.076400
     14 C13         11.6290     0.0050     7.2100 c3         1 ARC      -0.074700
     15 C14         12.1380     1.2530     6.4890 c3         1 ARC      -0.094100
     16 C15         12.1400     0.0050     8.6520 c3         1 ARC      -0.077400
     17 C16         13.6690     0.0060     8.6510 c3         1 ARC      -0.085400
     18 C17         14.1800     0.0060    10.0940 c3         1 ARC      -0.076400
     19 C18         15.7090     0.0070    10.0950 c3         1 ARC      -0.077700
     20 C19         16.2210     0.0070    11.5350 c3         1 ARC      -0.087600
     21 C20         16.2200    -1.2410     9.3730 c3         1 ARC      -0.087600
     22 HO1         -0.3140    -0.1170    -0.8810 ho         1 ARC       0.401000
     23 H11          1.7890    -0.8840    -0.5110 h1         1 ARC       0.020700
     24 H12          1.7890     0.8840    -0.5110 h1         1 ARC       0.020700
     25 H21          1.5790    -0.8850     1.9530 hc         1 ARC       0.054200
     26 H22          1.5780     0.8840     1.9530 hc         1 ARC       0.054200
     27 H3           3.8300    -0.8840     0.9310 hc         1 ARC       0.048700
     28 H41          4.7500     0.9690     0.0140 hc         1 ARC       0.036700
     29 H42          4.3860     1.9440     1.4450 hc         1 ARC       0.036700
     30 H43          3.1580     1.7200     0.1910 hc         1 ARC       0.036700
     31 H51          3.6170     0.8850     3.3940 hc         1 ARC       0.043700
     32 H52          3.6180    -0.8840     3.3940 hc         1 ARC       0.043700
     33 H61          5.8710    -0.8820     2.3730 hc         1 ARC       0.044200
     34 H62          5.8700     0.8870     2.3730 hc         1 ARC       0.044200
     35 H71          5.6590    -0.8830     4.8360 hc         1 ARC       0.041200
     36 H72          5.6580     0.8860     4.8360 hc         1 ARC       0.041200
     37 H8           7.9100    -0.8810     3.8160 hc         1 ARC       0.049700
     38 H91          7.6900     2.1370     4.1100 hc         1 ARC       0.035033
     39 H92          9.1420     1.2560     3.6110 hc         1 ARC       0.035033
     40 H93          7.7040     1.2470     2.5810 hc         1 ARC       0.035033
     41 H101         7.6980     0.8870     6.2790 hc         1 ARC       0.041200
     42 H102         7.7000    -0.8820     6.2780 hc         1 ARC       0.041200
     43 H111         9.9490     0.8890     5.2580 hc         1 ARC       0.044200
     44 H112         9.9510    -0.8800     5.2570 hc         1 ARC       0.044200
     45 H121         9.7390    -0.8810     7.7200 hc         1 ARC       0.041700
     46 H122         9.7380     0.8880     7.7210 hc         1 ARC       0.041700
     47 H13         11.9910    -0.8790     6.6990 hc         1 ARC       0.049700
     48 H141        12.8210     1.7910     7.1350 hc         1 ARC       0.035367
     49 H142        12.6540     0.9610     5.5820 hc         1 ARC       0.035367
     50 H143        11.3000     1.8920     6.2370 hc         1 ARC       0.035367
     51 H151        11.7780     0.8890     9.1630 hc         1 ARC       0.041200
     52 H152        11.7790    -0.8800     9.1620 hc         1 ARC       0.041200
     53 H161        14.0310    -0.8780     8.1400 hc         1 ARC       0.044200
     54 H162        14.0300     0.8910     8.1410 hc         1 ARC       0.044200
     55 H171        13.8190     0.8900    10.6050 hc         1 ARC       0.040700
     56 H172        13.8200    -0.8790    10.6040 hc         1 ARC       0.040700
     57 H18         16.0690     0.8920     9.5840 hc         1 ARC       0.047700
     58 H191        15.8990    -0.9000    12.0330 hc         1 ARC       0.033033
     59 H192        17.3030     0.0530    11.5340 hc         1 ARC       0.033033
     60 H193        15.8240     0.8670    12.0600 hc         1 ARC       0.033033
     61 H201        16.2740    -1.0460     8.3090 hc         1 ARC       0.033033
     62 H202        15.5420    -2.0660     9.5550 hc         1 ARC       0.033033
     63 H203        17.2050    -1.4950     9.7440 hc         1 ARC       0.033033
@<TRIPOS>BOND
     1     1     2 1
     2     1    22 1
     3     2     3 1
     4     2    23 1
     5     2    24 1
     6     3     4 1
     7     3    25 1
     8     3    26 1
     9     4     5 1
    10     4     6 1
    11     4    27 1
    12     5    28 1
    13     5    29 1
    14     5    30 1
    15     6     7 1
    16     6    31 1
    17     6    32 1
    18     7     8 1
    19     7    33 1
    20     7    34 1
    21     8     9 1
    22     8    35 1
    23     8    36 1
    24     9    10 1
    25     9    11 1
    26     9    37 1
    27    10    38 1
    28    10    39 1
    29    10    40 1
    30    11    12 1
    31    11    41 1
    32    11    42 1
    33    12    13 1
    34    12    43 1
    35    12    44 1
    36    13    14 1
    37    13    45 1
    38    13    46 1
    39    14    15 1
    40    14    16 1
    41    14    47 1
    42    15    48 1
    43    15    49 1
    44    15    50 1
    45    16    17 1
    46    16    51 1
    47    16    52 1
    48    17    18 1
    49    17    53 1
    50    17    54 1
    51    18    19 1
    52    18    55 1
    53    18    56 1
    54    19    20 1
    55    19    21 1
    56    19    57 1
    57    20    58 1
    58    20    59 1
    59    20    60 1
    60    21    61 1
    61    21    62 1
    62    21    63 1
@<TRIPOS>SUBSTRUCTURE
     1 ARC         1 TEMP              0 ****  ****    0 ROOT
