@<TRIPOS>MOLECULE
molecule
   42    45     1     0     0
SMALL
bcc


@<TRIPOS>ATOM
      1 C1           0.0000     0.0000     0.0000 cc         1 ARH      -0.357200
      2 C2           1.4650     0.0000     0.0000 c          1 ARH       0.623900
      3 C3           2.2060     0.0000     1.2700 cc         1 ARH      -0.166900
      4 C4           1.5070    -0.0000     2.4720 cd         1 ARH      -0.193600
      5 C5           0.0300     0.0060     2.4590 c          1 ARH       0.602900
      6 C6          -0.6910     0.0010     1.1600 cd         1 ARH       0.220800
      7 N7           3.5420     0.0000     1.5610 na         1 ARH       0.021900
      8 C8           3.7020     0.0000     2.9150 cc         1 ARH      -0.050300
      9 C9           2.4570    -0.0000     3.5060 cd         1 ARH      -0.085300
     10 O10         -0.5910     0.0150     3.5020 o          1 ARH      -0.512100
     11 O11          2.0720    -0.0000    -1.0560 o          1 ARH      -0.556100
     12 N12         -2.0710     0.0010     1.1390 nm         1 ARH      -0.771400
     13 C13         -3.3370     0.0010     1.8880 cx         1 ARH       0.202800
     14 C14         -3.3100     0.0020     0.3580 cx         1 ARH       0.190500
     15 C17         -3.6980     1.2960    -0.3570 c3         1 ARH      -0.087100
     16 C25          4.6260     0.0000     0.5750 c3         1 ARH       0.024600
     17 C32          4.9960     0.0010     3.6300 ca         1 ARH      -0.022000
     18 C33          2.1680     0.0010     4.9850 c3         1 ARH       0.213700
     19 O34          2.0770     1.3470     5.4520 oh         1 ARH      -0.601800
     20 C38          5.9020     1.0460     3.4400 ca         1 ARH      -0.109000
     21 C39          7.1060     1.0410     4.1110 ca         1 ARH      -0.129500
     22 C40          7.4200     0.0020     4.9690 ca         1 ARH      -0.120000
     23 C41          6.5280    -1.0370     5.1620 ca         1 ARH      -0.129500
     24 C42          5.3160    -1.0410     4.5010 ca         1 ARH      -0.109000
     25 HC1         -0.5350    -0.0040    -0.9420 ha         1 ARH       0.160000
     26 H131        -3.6070    -0.9400     2.3520 h1         1 ARH       0.081200
     27 H132        -3.6060     0.9410     2.3530 h1         1 ARH       0.081200
     28 HC41        -3.5590    -0.9470    -0.1010 h1         1 ARH       0.085700
     29 H171        -3.2340     2.1380     0.1420 hc         1 ARH       0.051367
     30 H172        -3.3610     1.2560    -1.3860 hc         1 ARH       0.051367
     31 H173        -4.7750     1.4120    -0.3350 hc         1 ARH       0.051367
     32 H251         4.6600     0.9610     0.0760 h1         1 ARH       0.065700
     33 H252         4.4490    -0.7800    -0.1550 h1         1 ARH       0.065700
     34 H253         5.5690    -0.1810     1.0760 h1         1 ARH       0.065700
     35 H331         1.2300    -0.5090     5.1700 h1         1 ARH       0.033200
     36 H332         2.9670    -0.5100     5.5090 h1         1 ARH       0.033200
     37 HO43         1.8210     1.3480     6.3590 ho         1 ARH       0.400000
     38 HC83         5.6580     1.8610     2.7680 ha         1 ARH       0.138000
     39 HC93         7.8100     1.8510     3.9640 ha         1 ARH       0.133000
     40 HC04         8.3690     0.0020     5.4920 ha         1 ARH       0.131000
     41 HC14         6.7780    -1.8460     5.8360 ha         1 ARH       0.133000
     42 HC24         4.6180    -1.8560     4.6530 ha         1 ARH       0.138000
@<TRIPOS>BOND
     1     1     2 1
     2     1     6 2
     3     1    25 1
     4     2     3 1
     5     2    11 2
     6     3     4 2
     7     3     7 1
     8     4     5 1
     9     4     9 1
    10     5     6 1
    11     5    10 2
    12     6    12 1
    13     7     8 1
    14     7    16 1
    15     8     9 2
    16     8    17 1
    17     9    18 1
    18    12    13 1
    19    12    14 1
    20    13    14 1
    21    13    26 1
    22    13    27 1
    23    14    15 1
    24    14    28 1
    25    15    29 1
    26    15    30 1
    27    15    31 1
    28    16    32 1
    29    16    33 1
    30    16    34 1
    31    17    20 ar
    32    17    24 ar
    33    18    19 1
    34    18    35 1
    35    18    36 1
    36    19    37 1
    37    20    21 ar
    38    20    38 1
    39    21    22 ar
    40    21    39 1
    41    22    23 ar
    42    22    40 1
    43    23    24 ar
    44    23    41 1
    45    24    42 1
@<TRIPOS>SUBSTRUCTURE
     1 ARH         1 TEMP              0 ****  ****    0 ROOT
