@<TRIPOS>MOLECULE
ARJ
   32    34     1     0     0
SMALL
bcc


@<TRIPOS>ATOM
      1 C2           0.0000     0.0000     0.0000 ca         1 ARJ       0.697900
      2 C4           1.9940     0.0000     1.1430 ca         1 ARJ       0.279800
      3 C5           1.2860     0.0000     2.3570 ca         1 ARJ      -0.253200
      4 C6          -0.1190    -0.0000     2.3050 ca         1 ARJ       0.594200
      5 O2'          4.7510     2.6010     0.3850 oh         1 ARJ      -0.553800
      6 C2'          5.3030     1.4080     0.9430 c3         1 ARJ       0.066100
      7 C3D          6.6690     1.1250     0.3420 c          1 ARJ       0.602100
      8 O3D          7.5080     1.9440     0.0540 o          1 ARJ      -0.483100
      9 C4'          6.7850    -0.3760     0.1740 c3         1 ARJ      -0.168700
     10 C6'          7.9530    -0.9080     1.0060 c3         1 ARJ       0.243400
     11 O6'          9.1820    -0.4060     0.4760 oh         1 ARJ      -0.575800
     12 C5'          5.4600    -0.9860     0.6750 c3         1 ARJ      -0.028400
     13 C1'          4.4460     0.1790     0.5480 c3         1 ARJ      -0.072000
     14 N9           3.3240     0.0000     1.4820 na         1 ARJ       0.219000
     15 C8           3.3980     0.0010     2.8430 cc         1 ARJ       0.219700
     16 N7           2.2020     0.0010     3.3550 nd         1 ARJ      -0.482100
     17 N3           1.3170     0.0000     0.0000 nb         1 ARJ      -0.682000
     18 N1          -0.7080    -0.0010     1.1140 nb         1 ARJ      -0.744000
     19 N6          -0.8700    -0.0010     3.4670 nv         1 ARJ      -0.478500
     20 H2          -0.5210    -0.0000    -0.9500 h5         1 ARJ      -0.003900
     21 HO2'         4.6990     3.2660     1.0520 ho         1 ARJ       0.399000
     22 H2'          5.3750     1.4860     2.0210 h1         1 ARJ       0.029700
     23 H4'          6.9290    -0.6180    -0.8720 hc         1 ARJ       0.067700
     24 H6'          7.9590    -1.9900     0.9700 h1         1 ARJ      -0.012800
     25 H6A'         7.8430    -0.5820     2.0330 h1         1 ARJ      -0.012800
     26 HO6'         9.9000    -0.9200     0.8080 ho         1 ARJ       0.392000
     27 H5'          5.5530    -1.2970     1.7090 hc         1 ARJ       0.032700
     28 H5A'         5.1630    -1.8170     0.0460 hc         1 ARJ       0.032700
     29 H1'          4.0950     0.2720    -0.4720 h1         1 ARJ       0.090700
     30 H8           4.3190     0.0010     3.4140 h5         1 ARJ       0.029800
     31 HN6         -0.4150     0.0410     4.3570 hn         1 ARJ       0.276800
     32 HN6A        -1.8690    -0.0380     3.4170 hn         1 ARJ       0.276800
@<TRIPOS>BOND
     1     1    17 ar  
     2     1    18 ar  
     3     1    20 1   
     4     2     3 ar  
     5     2    14 1   
     6     2    17 ar  
     7     3     4 ar  
     8     3    16 1   
     9     4    18 ar  
    10     4    19 1   
    11     5     6 1   
    12     5    21 1   
    13     6     7 1   
    14     6    13 1   
    15     6    22 1   
    16     7     8 2   
    17     7     9 1   
    18     9    10 1   
    19     9    12 1   
    20     9    23 1   
    21    10    11 1   
    22    10    24 1   
    23    10    25 1   
    24    11    26 1   
    25    12    13 1   
    26    12    27 1   
    27    12    28 1   
    28    13    14 1   
    29    13    29 1   
    30    14    15 1   
    31    15    16 2   
    32    15    30 1   
    33    19    31 1   
    34    19    32 1   
@<TRIPOS>SUBSTRUCTURE
     1 ARJ         1 TEMP              0 ****  ****    0 ROOT
