@<TRIPOS>MOLECULE
molecule
   79    80     1     0     0
SMALL
bcc


@<TRIPOS>ATOM
      1 OAA          0.0000     0.0000     0.0000 o          1 ARK      -0.673800
      2 CBH          1.3420     0.0000     0.0000 c          1 ARK       0.887600
      3 OAG          1.9470     0.0000     1.0460 o          1 ARK      -0.673800
      4 CAV          2.0960     0.0010    -1.3060 c3         1 ARK      -0.139400
      5 CAX          3.6010     0.0020    -1.0260 c3         1 ARK      -0.075400
      6 CBQ          4.3660     0.0020    -2.3510 c3         1 ARK       0.069700
      7 CBJ          5.8420     0.1270    -2.0780 c          1 ARK       0.891600
      8 OAI          6.3170     1.2020    -1.4300 o          1 ARK      -0.611300
      9 OAC          6.5990    -0.7410    -2.4440 o          1 ARK      -0.611300
     10 NBE          4.1040    -1.2490    -3.0660 ns         1 ARK      -0.477900
     11 CBK          4.2250    -1.2960    -4.4070 c          1 ARK       0.755100
     12 OAD          4.5500    -0.3010    -5.0240 o          1 ARK      -0.620100
     13 N            3.9850    -2.4480    -5.0660 ns         1 ARK      -0.502900
     14 CA           4.1150    -2.4990    -6.5240 c3         1 ARK       0.049700
     15 C            2.8300    -2.0370    -7.1600 c          1 ARK       0.876600
     16 OXT          2.7180    -2.0000    -8.4970 o          1 ARK      -0.702800
     17 O            1.9000    -1.6990    -6.4660 o          1 ARK      -0.702800
     18 CB           4.4120    -3.9370    -6.9590 c3         1 ARK      -0.082400
     19 CAP          5.7770    -4.3630    -6.4150 c3         1 ARK      -0.088400
     20 CAQ          6.0730    -5.8000    -6.8500 c3         1 ARK      -0.100400
     21 CAY          7.4380    -6.2260    -6.3050 c3         1 ARK       0.056300
     22 NBR          7.7220    -7.6020    -6.7230 na         1 ARK       0.126400
     23 CAO          8.8210    -8.0160    -7.3940 cc         1 ARK      -0.261600
     24 NBB          6.9700    -8.6240    -6.5080 nc         1 ARK      -0.202800
     25 NBA          7.5090    -9.6830    -7.0030 nd         1 ARK      -0.368000
     26 CBL          8.6740    -9.3500    -7.5710 cd         1 ARK       0.264600
     27 CAZ          9.6350   -10.2790    -8.2670 c3         1 ARK       0.131100
     28 OBG         10.7630    -9.5350    -8.7330 os         1 ARK      -0.428600
     29 CAU         11.7400   -10.3250    -9.4130 c3         1 ARK       0.146400
     30 CAT         12.8960    -9.4300    -9.8640 c3         1 ARK       0.141400
     31 OBF         13.5660    -8.9030    -8.7180 os         1 ARK      -0.409600
     32 CAS         14.6690    -8.0490    -9.0300 c3         1 ARK       0.123400
     33 CAR         15.3070    -7.5450    -7.7340 c3         1 ARK       0.033300
     34 NBC         15.8880    -8.6750    -7.0050 nu         1 ARK      -0.352100
     35 CBN         16.5200    -8.4660    -5.8030 cc         1 ARK       0.304700
     36 CAM         16.7230    -7.1660    -5.3390 cc         1 ARK      -0.272000
     37 CAL         17.3470    -6.9450    -4.1510 cd         1 ARK       0.044000
     38 CBM         17.8010    -8.0280    -3.3670 cd         1 ARK       0.030000
     39 NBS         18.4160    -7.7990    -2.1970 nh         1 ARK       0.211300
     40 OAJ         18.5830    -6.6560    -1.8120 oh         1 ARK      -0.383300
     41 OAE         18.8070    -8.7330    -1.5210 o          1 ARK      -0.465000
     42 CAN         17.6090    -9.3440    -3.8100 cc         1 ARK      -0.354000
     43 CBO         16.9610    -9.5710    -5.0320 cc         1 ARK       0.027700
     44 NBT         16.7650   -10.8230    -5.4690 nh         1 ARK       0.099500
     45 OAK         17.5730   -11.6940    -5.2030 oh         1 ARK      -0.418200
     46 OAF         15.7790   -11.0880    -6.1330 o          1 ARK      -0.373000
     47 HAV1         1.8350    -0.8840    -1.8740 hc         1 ARK       0.071700
     48 HAV2         1.8340     0.8850    -1.8740 hc         1 ARK       0.071700
     49 HAX1         3.8620     0.8860    -0.4570 hc         1 ARK       0.089700
     50 HAX2         3.8630    -0.8830    -0.4580 hc         1 ARK       0.089700
     51 HBQ          4.0380     0.8390    -2.9560 h1         1 ARK       0.143700
     52 HBE          3.8750    -2.0790    -2.5550 hn         1 ARK       0.327500
     53 H            3.6870    -3.2600    -4.5620 hn         1 ARK       0.314500
     54 HA           4.9260    -1.8530    -6.8370 h1         1 ARK       0.113700
     55 HB1C         3.6460    -4.5970    -6.5690 hc         1 ARK       0.070700
     56 HB2C         4.4210    -3.9920    -8.0400 hc         1 ARK       0.070700
     57 HAP1         6.5430    -3.7030    -6.8050 hc         1 ARK       0.046700
     58 HAP2         5.7680    -4.3080    -5.3330 hc         1 ARK       0.046700
     59 HAQ1         5.3070    -6.4600    -6.4600 hc         1 ARK       0.064700
     60 HAQ2         6.0820    -5.8550    -7.9310 hc         1 ARK       0.064700
     61 HAY1         7.4290    -6.1710    -5.2230 h1         1 ARK       0.069700
     62 HAY2         8.2040    -5.5660    -6.6940 h1         1 ARK       0.069700
     63 HAO          9.6500    -7.4030    -7.7260 h4         1 ARK       0.192000
     64 HAZ1         9.1390   -10.7470    -9.1080 h1         1 ARK       0.042700
     65 HAZ2         9.9670   -11.0410    -7.5730 h1         1 ARK       0.042700
     66 HAU1        12.1160   -11.0900    -8.7430 h1         1 ARK       0.038700
     67 HAU2        11.2880   -10.7940   -10.2780 h1         1 ARK       0.038700
     68 HAT1        13.5940   -10.0120   -10.4550 h1         1 ARK       0.033200
     69 HAT2        12.5090    -8.6150   -10.4630 h1         1 ARK       0.033200
     70 HAS1        14.3180    -7.2050    -9.6120 h1         1 ARK       0.035700
     71 HAS2        15.4030    -8.6020    -9.6030 h1         1 ARK       0.035700
     72 HAR1        16.0850    -6.8290    -7.9700 h1         1 ARK       0.065700
     73 HAR2        14.5520    -7.0690    -7.1210 h1         1 ARK       0.065700
     74 HBC         15.8620    -9.5930    -7.4030 hn         1 ARK       0.339700
     75 HAM         16.3800    -6.3250    -5.9300 ha         1 ARK       0.146000
     76 HAL         17.4980    -5.9300    -3.8040 ha         1 ARK       0.148000
     77 HAN         17.9540   -10.1780    -3.2110 ha         1 ARK       0.176000
     78 HAJ         19.0270    -6.6670    -0.9800 ho         1 ARK       0.465000
     79 HAK         17.2900   -12.5100    -5.5810 ho         1 ARK       0.454000
@<TRIPOS>BOND
     1     1     2 1
     2     2     3 1
     3     2     4 1
     4     4     5 1
     5     5     6 1
     6     6     7 1
     7     6    10 1
     8     7     8 1
     9     7     9 1
    10    10    11 1
    11    11    12 2
    12    11    13 1
    13    13    14 1
    14    14    15 1
    15    14    18 1
    16    15    16 1
    17    15    17 1
    18    18    19 1
    19    19    20 1
    20    20    21 1
    21    21    22 1
    22    22    23 1
    23    22    24 1
    24    23    26 2
    25    24    25 2
    26    25    26 1
    27    26    27 1
    28    27    28 1
    29    28    29 1
    30    29    30 1
    31    30    31 1
    32    31    32 1
    33    32    33 1
    34    33    34 1
    35    34    35 2
    36    35    36 1
    37    35    43 1
    38    36    37 2
    39    37    38 1
    40    38    39 1
    41    38    42 2
    42    39    40 1
    43    39    41 1
    44    42    43 1
    45    43    44 2
    46    44    45 1
    47    44    46 1
    48     4    47 1
    49     4    48 1
    50     5    49 1
    51     5    50 1
    52     6    51 1
    53    10    52 1
    54    13    53 1
    55    14    54 1
    56    18    55 1
    57    18    56 1
    58    19    57 1
    59    19    58 1
    60    20    59 1
    61    20    60 1
    62    21    61 1
    63    21    62 1
    64    23    63 1
    65    27    64 1
    66    27    65 1
    67    29    66 1
    68    29    67 1
    69    30    68 1
    70    30    69 1
    71    32    70 1
    72    32    71 1
    73    33    72 1
    74    33    73 1
    75    34    74 1
    76    36    75 1
    77    37    76 1
    78    42    77 1
    79    40    78 1
    80    45    79 1
@<TRIPOS>SUBSTRUCTURE
     1 ARK         1 TEMP              0 ****  ****    0 ROOT
