@<TRIPOS>MOLECULE
ARK
   79    79     1     0     0
SMALL
bcc


@<TRIPOS>ATOM
      1 OAA         3.1420    1.4400   -2.9490 o         1 ARK     -0.809800
      2 CBH         3.8750    0.5140   -3.3670 c         1 ARK      0.903600
      3 OAG         3.4980   -0.7090   -3.4150 o         1 ARK     -0.809800
      4 CAV         5.2860    0.8550   -3.8700 c3        1 ARK     -0.219400
      5 CAX         6.3640    0.5380   -2.8600 c3        1 ARK     -0.168700
      6 CBQ         6.7260   -0.9040   -2.7460 c2        1 ARK      0.358500
      7 CBJ        10.5010   -1.4410   -3.2910 c1        1 ARK      0.947000
      8 OAI         9.7640   -0.5020   -3.2510 o         1 ARK     -0.484500
      9 OAC        11.3450   -2.2800   -3.2730 o         1 ARK     -0.484500
     10 NBE         5.9040   -1.8910   -2.9610 n         1 ARK     -0.358500
     11 CBK         6.3610   -3.2920   -2.8470 c         1 ARK      0.764100
     12 OAD         6.7390   -3.6760   -1.7320 o         1 ARK     -0.532100
     13 N           6.2090   -4.1250   -3.9770 n         1 ARK     -0.453900
     14 CA          7.4410   -4.8260   -4.3410 c3        1 ARK     -0.058300
     15 C           8.6780   -3.8770   -4.4360 c         1 ARK      0.913600
     16 OXT         9.6710   -4.2420   -5.1150 o         1 ARK     -0.845800
     17 O           8.6250   -2.7810   -3.7910 o         1 ARK     -0.845800
     18 CB          7.2950   -5.6100   -5.6430 c3        1 ARK     -0.077400
     19 CAP         6.5050   -6.8930   -5.4820 c3        1 ARK     -0.077400
     20 CAQ         6.9600   -7.8910   -6.5270 c3        1 ARK     -0.106400
     21 CAY         6.1990   -9.2080   -6.4050 c3        1 ARK      0.053300
     22 NBR         6.7810  -10.2700   -7.2120 na        1 ARK      0.052400
     23 CAO         7.9220  -10.1380   -8.0090 cc        1 ARK     -0.200600
     24 NBB         6.3760  -11.5660   -7.2160 nc        1 ARK     -0.180800
     25 NBA         7.1520  -12.2640   -7.9420 nd        1 ARK     -0.357000
     26 CBL         8.1700  -11.4410   -8.4800 cd        1 ARK      0.195600
     27 CAZ         9.2780  -11.8860   -9.3550 c3        1 ARK      0.124100
     28 OBG        10.2130  -10.8390   -9.5910 os        1 ARK     -0.428600
     29 CAU        11.0350  -10.5230   -8.4660 c3        1 ARK      0.117400
     30 CAT        11.4100   -9.0460   -8.5630 c3        1 ARK      0.104400
     31 OBF        10.4570   -8.3330   -7.7660 os        1 ARK     -0.447600
     32 CAS        10.4550   -6.9250   -7.9530 c3        1 ARK      0.117400
     33 CAR        11.0780   -6.2090   -6.7460 c3        1 ARK     -0.040700
     34 NBC        12.4890   -6.4810   -6.6140 nh        1 ARK     -0.260100
     35 CBN        13.2960   -5.9470   -5.7010 cc        1 ARK      0.372300
     36 CAM        12.8140   -4.9570   -4.7470 cc        1 ARK     -0.312600
     37 CAL        13.6210   -4.4370   -3.7970 cd        1 ARK     -0.016000
     38 CBM        15.0020   -4.8670   -3.6890 cd        1 ARK     -0.045000
     39 NBS        15.8310   -4.3690   -2.7270 nh        1 ARK      0.299300
     40 OAJ        15.3040   -3.4840   -1.8770 oh        1 ARK     -0.408300
     41 OAE        16.9910   -4.6270   -2.5050 o         1 ARK     -0.392000
     42 CAN        15.4990   -5.8470   -4.6350 cc        1 ARK     -0.196600
     43 CBO        14.7130   -6.3570   -5.6250 cc        1 ARK     -0.013700
     44 NBT        15.3270   -7.1210   -6.7880 nh        1 ARK      0.077500
     45 OAK        16.5080   -7.6500   -6.3620 oh        1 ARK     -0.588200
     46 OAF        14.6110   -8.0480   -7.2190 o         1 ARK     -0.527000
     47 HAV1        5.4740    0.3070   -4.8270 hc        1 ARK      0.054200
     48 HAV2        5.3190    1.9540   -4.0870 hc        1 ARK      0.054200
     49 HAX1        6.0360    0.8870   -1.8390 hc        1 ARK      0.089700
     50 HAX2        7.3110    1.0870   -3.1230 hc        1 ARK      0.089700
     51 HBQ         7.7880   -1.1430   -2.4770 h4        1 ARK      0.082800
     52 HBE         4.9000   -1.7060   -3.2260 hn        1 ARK      0.422500
     53 H           5.7950   -3.6690   -4.7690 hn        1 ARK      0.281500
     54 HA          7.6670   -5.5390   -3.4930 h1        1 ARK      0.087700
     55 HB1C        6.8300   -4.9750   -6.4410 hc        1 ARK      0.060200
     56 HB2C        8.3430   -5.8460   -5.9860 hc        1 ARK      0.060200
     57 HAP1        6.6670   -7.3230   -4.4580 hc        1 ARK      0.049200
     58 HAP2        5.4090   -6.6900   -5.5850 hc        1 ARK      0.049200
     59 HAQ1        6.8090   -7.4590   -7.5510 hc        1 ARK      0.057700
     60 HAQ2        8.0650   -8.0640   -6.3960 hc        1 ARK      0.057700
     61 HAY1        5.1300   -9.0610   -6.7300 h1        1 ARK      0.066700
     62 HAY2        6.1940   -9.5430   -5.3280 h1        1 ARK      0.066700
     63 HAO         8.4690   -9.2070   -8.1780 h4        1 ARK      0.218000
     64 HAZ1        9.7960  -12.7800   -8.9130 h1        1 ARK      0.060700
     65 HAZ2        8.8970  -12.1370  -10.3830 h1        1 ARK      0.060700
     66 HAU1       10.5010  -10.7280   -7.5020 h1        1 ARK      0.055700
     67 HAU2       11.9630  -11.1520   -8.5340 h1        1 ARK      0.055700
     68 HAT1       11.3650   -8.6960   -9.6270 h1        1 ARK      0.067700
     69 HAT2       12.4430   -8.8950   -8.1470 h1        1 ARK      0.067700
     70 HAS1        9.3670   -6.6380   -7.9870 h1        1 ARK      0.059200
     71 HAS2       10.9550   -6.6280   -8.9100 h1        1 ARK      0.059200
     72 HAR1       10.5450   -6.5320   -5.8030 h1        1 ARK      0.106200
     73 HAR2       10.9020   -5.0960   -6.8530 h1        1 ARK      0.106200
     74 HBC        12.8780   -7.1900   -7.2370 hn        1 ARK      0.354700
     75 HAM        11.7570   -4.6120   -4.8050 ha        1 ARK      0.221000
     76 HAL        13.2310   -3.6750   -3.0960 ha        1 ARK      0.177000
     77 HAN        16.5500   -6.1800   -4.5450 ha        1 ARK      0.184000
     78 HAJ        15.9960   -3.2200   -1.2290 ho        1 ARK      0.464000
     79 HAK        16.4630   -8.6230   -6.3870 ho        1 ARK      0.398000
@<TRIPOS>BOND
     1    1    2 1   
     2    2    3 1   
     3    2    4 1   
     4    4    5 1   
     5    4   47 1   
     6    4   48 1   
     7    5    6 1   
     8    5   49 1   
     9    5   50 1   
    10    6   10 2   
    11    6   51 1   
    12    7    8 2   
    13    7    9 2   
    14   10   11 1   
    15   10   52 1   
    16   11   12 2   
    17   11   13 1   
    18   13   14 1   
    19   13   53 1   
    20   14   15 1   
    21   14   18 1   
    22   14   54 1   
    23   15   16 1   
    24   15   17 1   
    25   18   19 1   
    26   18   55 1   
    27   18   56 1   
    28   19   20 1   
    29   19   57 1   
    30   19   58 1   
    31   20   21 1   
    32   20   59 1   
    33   20   60 1   
    34   21   22 1   
    35   21   61 1   
    36   21   62 1   
    37   22   23 1   
    38   22   24 1   
    39   23   26 2   
    40   23   63 1   
    41   24   25 2   
    42   25   26 1   
    43   26   27 1   
    44   27   28 1   
    45   27   64 1   
    46   27   65 1   
    47   28   29 1   
    48   29   30 1   
    49   29   66 1   
    50   29   67 1   
    51   30   31 1   
    52   30   68 1   
    53   30   69 1   
    54   31   32 1   
    55   32   33 1   
    56   32   70 1   
    57   32   71 1   
    58   33   34 1   
    59   33   72 1   
    60   33   73 1   
    61   34   35 2   
    62   34   74 1   
    63   35   36 1   
    64   35   43 1   
    65   36   37 2   
    66   36   75 1   
    67   37   38 1   
    68   37   76 1   
    69   38   39 1   
    70   38   42 2   
    71   39   40 1   
    72   39   41 1   
    73   40   78 1   
    74   42   43 1   
    75   42   77 1   
    76   43   44 2   
    77   44   45 1   
    78   44   46 1   
    79   45   79 1   
@<TRIPOS>SUBSTRUCTURE
     1 ARK         1 TEMP              0 ****  ****    0 ROOT
