@<TRIPOS>MOLECULE
molecule
   56    56     1     0     0
SMALL
bcc


@<TRIPOS>ATOM
      1 C16          0.0000     0.0000     0.0000 c3         1 ARL      -0.065900
      2 C9           1.5060     0.0000     0.0000 ce         1 ARL      -0.122200
      3 C13          2.2100     0.0000     1.2170 ce         1 ARL       0.015000
      4 C8           1.5300     0.0010     2.3960 cf         1 ARL      -0.265000
      5 C44          2.2350     0.0010     3.6170 cf         1 ARL      -0.423000
      6 C42          1.5630    -0.1090     4.7870 ce         1 ARL      -0.067400
      7 C7           0.0560    -0.0970     4.7950 c3         1 ARL      -0.086900
      8 C3           2.3030    -0.2390     6.0490 ca         1 ARL       0.003200
      9 C4           2.1430     0.7150     7.0610 ca         1 ARL      -0.117000
     10 C5           2.8400     0.5850     8.2430 ca         1 ARL      -0.081300
     11 C6           3.6970    -0.4850     8.4300 ca         1 ARL      -0.135000
     12 C1           3.8620    -1.4320     7.4350 ca         1 ARL      -0.081300
     13 C2           3.1670    -1.3200     6.2500 ca         1 ARL      -0.117000
     14 C10          4.7990    -2.5930     7.6500 c3         1 ARL      -0.019200
     15 C11          4.7970    -3.4870     6.4080 c3         1 ARL      -0.080267
     16 C15          6.2130    -2.0680     7.8990 c3         1 ARL      -0.080267
     17 C19          4.3360    -3.4050     8.8620 c3         1 ARL      -0.080267
     18 C23          2.6690     1.6110     9.3330 c3         1 ARL      -0.019200
     19 C24          1.6740     2.6800     8.8760 c3         1 ARL      -0.080267
     20 C28          2.1410     0.9290    10.5970 c3         1 ARL      -0.080267
     21 C32          4.0190     2.2650     9.6340 c3         1 ARL      -0.080267
     22 C14          2.1860    -0.0020    -1.1790 cf         1 ARL      -0.294200
     23 C12          1.5300     0.3650    -2.3740 c          1 ARL       0.942800
     24 O2           2.1620     0.2330    -3.5590 o          1 ARL      -0.782800
     25 O3           0.3950     0.8010    -2.3350 o          1 ARL      -0.782800
     26 H161        -0.3610    -0.3780    -0.9490 hc         1 ARL       0.046700
     27 H162        -0.3610     1.0110     0.1470 hc         1 ARL       0.046700
     28 H163        -0.3610    -0.6320     0.8020 hc         1 ARL       0.046700
     29 H13          3.2930    -0.0010     1.2170 ha         1 ARL       0.154000
     30 H8           0.4470     0.0020     2.3960 ha         1 ARL       0.097000
     31 H44          1.7750     0.9000     3.2250 ha         1 ARL       0.335000
     32 H71         -0.3000     0.8570     4.4260 hc         1 ARL       0.035033
     33 H72         -0.3150    -0.8920     4.1580 hc         1 ARL       0.035033
     34 H73         -0.3010    -0.2490     5.8060 hc         1 ARL       0.035033
     35 H4           1.5320     1.5920     6.8860 ha         1 ARL       0.140500
     36 H6           4.2420    -0.5810     9.3620 ha         1 ARL       0.119000
     37 H2           3.2360    -2.1040     5.5060 ha         1 ARL       0.140500
     38 H111         5.1140    -2.9100     5.5470 hc         1 ARL       0.033978
     39 H112         3.7980    -3.8690     6.2390 hc         1 ARL       0.033978
     40 H113         5.4800    -4.3150     6.5580 hc         1 ARL       0.033978
     41 H151         6.2660    -1.6260     8.8870 hc         1 ARL       0.033978
     42 H152         6.4570    -1.3200     7.1550 hc         1 ARL       0.033978
     43 H153         6.9190    -2.8870     7.8320 hc         1 ARL       0.033978
     44 H191         4.5550    -2.8550     9.7700 hc         1 ARL       0.033978
     45 H192         4.8560    -4.3540     8.8810 hc         1 ARL       0.033978
     46 H193         3.2690    -3.5790     8.7940 hc         1 ARL       0.033978
     47 H241         2.0540     3.1710     7.9880 hc         1 ARL       0.033978
     48 H242         1.5420     3.4110     9.6650 hc         1 ARL       0.033978
     49 H243         0.7220     2.2150     8.6520 hc         1 ARL       0.033978
     50 H281         2.9360     0.3540    11.0560 hc         1 ARL       0.033978
     51 H282         1.3220     0.2700    10.3360 hc         1 ARL       0.033978
     52 H283         1.7900     1.6820    11.2930 hc         1 ARL       0.033978
     53 H321         4.4970     2.5510     8.7050 hc         1 ARL       0.033978
     54 H322         3.8650     3.1450    10.2470 hc         1 ARL       0.033978
     55 H323         4.6500     1.5620    10.1640 hc         1 ARL       0.033978
     56 H14          1.7020    -0.8000    -1.7300 ha         1 ARL       0.135000
@<TRIPOS>BOND
     1     1     2 1
     2     1    26 1
     3     1    27 1
     4     1    28 1
     5     2     3 1
     6     2    22 2
     7     3     4 2
     8     3    29 1
     9     4     5 1
    10     4    30 1
    11     5     6 2
    12     5    31 1
    13     6     7 1
    14     6     8 1
    15     7    32 1
    16     7    33 1
    17     7    34 1
    18     8     9 ar
    19     8    13 ar
    20     9    10 ar
    21     9    35 1
    22    10    11 ar
    23    10    18 1
    24    11    12 ar
    25    11    36 1
    26    12    13 ar
    27    12    14 1
    28    13    37 1
    29    14    15 1
    30    14    16 1
    31    14    17 1
    32    15    38 1
    33    15    39 1
    34    15    40 1
    35    16    41 1
    36    16    42 1
    37    16    43 1
    38    17    44 1
    39    17    45 1
    40    17    46 1
    41    18    19 1
    42    18    20 1
    43    18    21 1
    44    19    47 1
    45    19    48 1
    46    19    49 1
    47    20    50 1
    48    20    51 1
    49    20    52 1
    50    21    53 1
    51    21    54 1
    52    21    55 1
    53    22    23 1
    54    22    56 1
    55    23    24 1
    56    23    25 1
@<TRIPOS>SUBSTRUCTURE
     1 ARL         1 TEMP              0 ****  ****    0 ROOT
