@<TRIPOS>MOLECULE
ARL
   56    56     1     0     0
SMALL
bcc


@<TRIPOS>ATOM
      1 C16         2.3030   -1.3740    1.4660 c3        1 ARL     -0.050900
      2 C9          2.0600   -0.2300    0.5510 ce        1 ARL     -0.164200
      3 C13         1.3120    0.9190    1.0290 ce        1 ARL     -0.036000
      4 C8          1.1390    1.3740    2.2840 cf        1 ARL     -0.221000
      5 C44         1.7460    0.8470    3.4790 cf        1 ARL     -0.061000
      6 C42         1.2740    1.0400    4.7310 ce        1 ARL     -0.131400
      7 C7          0.0370    1.8110    5.0100 c3        1 ARL     -0.041900
      8 C3          1.9800    0.4890    5.8890 ca        1 ARL     -0.022800
      9 C4          2.0620    1.2230    7.0810 ca        1 ARL     -0.127500
     10 C5          2.7380    0.7080    8.1890 ca        1 ARL     -0.069800
     11 C6          3.3330   -0.5560    8.0920 ca        1 ARL     -0.141000
     12 C1          3.2610   -1.3070    6.9120 ca        1 ARL     -0.069800
     13 C2          2.5800   -0.7760    5.8140 ca        1 ARL     -0.127500
     14 C10         3.9230   -2.6600    6.8640 c3        1 ARL     -0.006200
     15 C11         3.7490   -3.3470    5.5150 c3        1 ARL     -0.084433
     16 C15         5.4190   -2.5010    7.1260 c3        1 ARL     -0.084433
     17 C19         3.3170   -3.5600    7.9380 c3        1 ARL     -0.084433
     18 C23         2.8530    1.4700    9.4840 c3        1 ARL     -0.006200
     19 C24         2.1570    2.8240    9.4270 c3        1 ARL     -0.084433
     20 C28         2.2190    0.6570   10.6100 c3        1 ARL     -0.084433
     21 C32         4.3270    1.7080    9.8040 c3        1 ARL     -0.084433
     22 C14         2.4870   -0.2560   -0.7280 cf        1 ARL     -0.133200
     23 C12         3.2870   -1.3630   -1.3800 c         1 ARL      0.894800
     24 O2          4.3560   -1.0240   -1.9620 o         1 ARL     -0.829300
     25 O3          2.8420   -2.5460   -1.3440 o         1 ARL     -0.829300
     26 H161        3.2840   -1.2560    1.9910 hc        1 ARL      0.040033
     27 H162        1.4960   -1.4520    2.2350 hc        1 ARL      0.040033
     28 H163        2.3410   -2.3260    0.8730 hc        1 ARL      0.040033
     29 H13         0.8130    1.4900    0.2190 ha        1 ARL      0.101000
     30 H8          0.4870    2.2530    2.4360 ha        1 ARL      0.104000
     31 H44         2.6770    0.2690    3.3320 ha        1 ARL      0.137000
     32 H71        -0.3940    1.5380    6.0040 hc        1 ARL      0.033033
     33 H72         0.2570    2.9090    5.0120 hc        1 ARL      0.033033
     34 H73        -0.7370    1.6120    4.2270 hc        1 ARL      0.033033
     35 H4          1.5880    2.2150    7.1170 ha        1 ARL      0.140000
     36 H6          3.8690   -0.9680    8.9600 ha        1 ARL      0.122000
     37 H2          2.4980   -1.3390    4.8700 ha        1 ARL      0.140000
     38 H111        2.6670   -3.5090    5.2920 hc        1 ARL      0.034533
     39 H112        4.2570   -4.3420    5.5300 hc        1 ARL      0.034533
     40 H113        4.2020   -2.7350    4.6980 hc        1 ARL      0.034533
     41 H151        5.5980   -2.0500    8.1310 hc        1 ARL      0.034533
     42 H152        5.8770   -1.8420    6.3510 hc        1 ARL      0.034533
     43 H153        5.9200   -3.4990    7.0890 hc        1 ARL      0.034533
     44 H191        3.4740   -3.1250    8.9530 hc        1 ARL      0.034533
     45 H192        3.7960   -4.5680    7.9050 hc        1 ARL      0.034533
     46 H193        2.2210   -3.6790    7.7650 hc        1 ARL      0.034533
     47 H241        2.6080    3.4650    8.6330 hc        1 ARL      0.034533
     48 H242        2.2690    3.3480   10.4080 hc        1 ARL      0.034533
     49 H243        1.0680    2.6980    9.2190 hc        1 ARL      0.034533
     50 H281        2.7360   -0.3250   10.7260 hc        1 ARL      0.034533
     51 H282        2.2950    1.2160   11.5740 hc        1 ARL      0.034533
     52 H283        1.1410    0.4690   10.3890 hc        1 ARL      0.034533
     53 H321        4.4230    2.2790   10.7590 hc        1 ARL      0.034533
     54 H322        4.8080    2.2940    8.9860 hc        1 ARL      0.034533
     55 H323        4.8670    0.7380    9.9140 hc        1 ARL      0.034533
     56 H14         2.2930    0.5970   -1.3990 ha        1 ARL      0.098000
@<TRIPOS>BOND
     1    1    2 1   
     2    1   26 1   
     3    1   27 1   
     4    1   28 1   
     5    2    3 1   
     6    2   22 2   
     7    3    4 2   
     8    3   29 1   
     9    4    5 1   
    10    4   30 1   
    11    5    6 2   
    12    5   31 1   
    13    6    7 1   
    14    6    8 1   
    15    7   32 1   
    16    7   33 1   
    17    7   34 1   
    18    8    9 ar  
    19    8   13 ar  
    20    9   10 ar  
    21    9   35 1   
    22   10   11 ar  
    23   10   18 1   
    24   11   12 ar  
    25   11   36 1   
    26   12   13 ar  
    27   12   14 1   
    28   13   37 1   
    29   14   15 1   
    30   14   16 1   
    31   14   17 1   
    32   15   38 1   
    33   15   39 1   
    34   15   40 1   
    35   16   41 1   
    36   16   42 1   
    37   16   43 1   
    38   17   44 1   
    39   17   45 1   
    40   17   46 1   
    41   18   19 1   
    42   18   20 1   
    43   18   21 1   
    44   19   47 1   
    45   19   48 1   
    46   19   49 1   
    47   20   50 1   
    48   20   51 1   
    49   20   52 1   
    50   21   53 1   
    51   21   54 1   
    52   21   55 1   
    53   22   23 1   
    54   22   56 1   
    55   23   24 1   
    56   23   25 1   
@<TRIPOS>SUBSTRUCTURE
     1 ARL         1 TEMP              0 ****  ****    0 ROOT
