@<TRIPOS>MOLECULE
molecule
   16    15     1     0     0
SMALL
bcc


@<TRIPOS>ATOM
      1 N            0.0000     0.0000     0.0000 n2         1 ARN      -0.793100
      2 C1           1.2790     0.0000     0.0000 c2         1 ARN       0.437200
      3 C2           2.0330     0.0000     1.3030 c3         1 ARN      -0.128700
      4 C3           2.9130    -1.2480     1.3850 c3         1 ARN      -0.071400
      5 CA           3.6790    -1.2480     2.7090 c3         1 ARN      -0.203400
      6 C            4.5460    -2.4770     2.7880 c          1 ARN       0.568900
      7 O            5.7430    -2.3670     2.8990 o          1 ARN      -0.519100
      8 HN1         -0.5000     0.0000    -0.8670 hn         1 ARN       0.395400
      9 H11          1.8200     0.0000    -0.9380 h4         1 ARN      -0.043200
     10 H21          2.6560     0.8850     1.3600 hc         1 ARN       0.064200
     11 H22          1.3300     0.0010     2.1270 hc         1 ARN       0.064200
     12 H31          3.6160    -1.2490     0.5610 hc         1 ARN       0.048700
     13 H32          2.2900    -2.1330     1.3290 hc         1 ARN       0.048700
     14 HCA1         2.9760    -1.2480     3.5330 hc         1 ARN       0.069700
     15 HCA2         4.3020    -0.3630     2.7650 hc         1 ARN       0.069700
     16 HC1          4.0930    -3.4610     2.7710 h4         1 ARN      -0.004800
@<TRIPOS>BOND
     1     1     2 2
     2     1     8 1
     3     2     3 1
     4     2     9 1
     5     3     4 1
     6     3    10 1
     7     3    11 1
     8     4     5 1
     9     4    12 1
    10     4    13 1
    11     5     6 1
    12     5    14 1
    13     5    15 1
    14     6     7 2
    15     6    16 1
@<TRIPOS>SUBSTRUCTURE
     1 ARN         1 TEMP              0 ****  ****    0 ROOT
