@<TRIPOS>MOLECULE
ARP
   25    26     1     0     0
SMALL
bcc


@<TRIPOS>ATOM
      1 C7           0.0000     0.0000     0.0000 c3         1 ARP      -0.039700
      2 C8           1.5290     0.0000     0.0000 c3         1 ARP       0.169100
      3 O1           2.0050     0.0000     1.3460 oh         1 ARP      -0.593800
      4 C9           2.0390     1.2490    -0.7230 c3         1 ARP      -0.026100
      5 C4          -0.7650    -2.4090     0.1150 ca         1 ARP       0.218800
      6 C3          -1.2000    -3.2420     1.1590 ca         1 ARP      -0.182200
      7 C2          -1.5520    -4.5660     0.8470 ca         1 ARP       0.600200
      8 N2          -1.4510    -4.9690    -0.4150 nb         1 ARP      -0.661000
      9 C1          -1.0320    -4.1500    -1.3620 ca         1 ARP       0.636900
     10 N5          -1.9920    -5.4330     1.8330 nv         1 ARP      -0.645500
     11 N4          -0.4890    -1.1950     0.6890 na         1 ARP       0.215000
     12 N3          -1.1760    -2.5050     2.2940 nc         1 ARP      -0.494100
     13 C6          -0.7590    -1.3040     2.0220 cd         1 ARP       0.274700
     14 N1          -0.6920    -2.9020    -1.1170 nb         1 ARP      -0.624000
     15 H72         -0.3610     0.0010    -1.0210 h1         1 ARP       0.047700
     16 H71         -0.3610     0.8840     0.5110 h1         1 ARP       0.047700
     17 H8           1.8900    -0.8850    -0.5100 h1         1 ARP       0.016700
     18 H1           2.8990    -0.2980     1.3630 ho         1 ARP       0.402000
     19 H93          1.6370     1.2740    -1.7280 hc         1 ARP       0.013367
     20 H92          3.1210     1.2240    -0.7670 hc         1 ARP       0.013367
     21 H91          1.7200     2.1330    -0.1840 hc         1 ARP       0.013367
     22 H52         -2.9700    -5.5080     2.0330 hn         1 ARP       0.281800
     23 H51         -1.3360    -6.0090     2.3220 hn         1 ARP       0.281800
     24 H6          -0.6440    -0.5070     2.7460 h5         1 ARP       0.037800
     25 H1C1        -0.9650    -4.5190    -2.3780 h5         1 ARP      -0.001900
@<TRIPOS>BOND
     1     1     2 1   
     2     1    11 1   
     3     1    15 1   
     4     1    16 1   
     5     2     3 1   
     6     2     4 1   
     7     2    17 1   
     8     3    18 1   
     9     4    19 1   
    10     4    20 1   
    11     4    21 1   
    12     5     6 ar  
    13     5    11 1   
    14     5    14 ar  
    15     6     7 ar  
    16     6    12 1   
    17     7     8 ar  
    18     7    10 1   
    19     8     9 ar  
    20     9    14 ar  
    21     9    25 1   
    22    10    22 1   
    23    10    23 1   
    24    11    13 1   
    25    12    13 2   
    26    13    24 1   
@<TRIPOS>SUBSTRUCTURE
     1 ARP         1 TEMP              0 ****  ****    0 ROOT
