@<TRIPOS>MOLECULE
ARQ
   75    77     1     0     0
SMALL
bcc


@<TRIPOS>ATOM
      1 C1           0.0000     0.0000     0.0000 c3         1 ARQ       0.201800
      2 C2           1.5310     0.0000     0.0000 c3         1 ARQ      -0.034100
      3 C3          -0.5100     0.0000     1.4430 c3         1 ARQ      -0.034100
      4 C4          -0.5090     1.2500    -0.7200 c3         1 ARQ      -0.034100
      5 O4          -0.4840    -1.1850    -0.6850 os         1 ARQ      -0.423900
      6 C30         -0.1600    -2.4080    -0.2260 c          1 ARQ       0.690100
      7 O3           0.5390    -2.5210     0.7620 o          1 ARQ      -0.636000
      8 N1          -0.6090    -3.5080    -0.8620 ns         1 ARQ      -0.195900
      9 C5          -0.2560    -4.8390    -0.3620 c3         1 ARQ       0.018700
     10 C6          -1.2400    -5.2490     0.7350 c3         1 ARQ       0.020900
     11 C7          -1.0890    -4.3270     1.9160 ca         1 ARQ      -0.099300
     12 C8          -1.8450    -3.1710     1.9930 ca         1 ARQ      -0.089500
     13 C9          -1.7050    -2.3260     3.0770 ca         1 ARQ      -0.086500
     14 C10         -0.8120    -2.6350     4.0850 ca         1 ARQ      -0.083000
     15 C11         -0.1990    -4.6390     2.9270 ca         1 ARQ      -0.089500
     16 C12         -0.0570    -3.7910     4.0090 ca         1 ARQ      -0.086500
     17 C13         -0.3220    -5.8480    -1.5100 c3         1 ARQ       0.163100
     18 O1          -1.6460    -5.8770    -2.0450 oh         1 ARQ      -0.592800
     19 C14          0.6620    -5.4370    -2.6070 c3         1 ARQ      -0.061200
     20 N2           0.7370    -6.4980    -3.6210 n4         1 ARQ       0.245200
     21 C22         -0.5940    -6.7130    -4.2030 c3         1 ARQ      -0.020900
     22 C15          1.6750    -6.1000    -4.6780 c3         1 ARQ       0.016100
     23 C16          3.0200    -5.7960    -4.0680 ca         1 ARQ      -0.188300
     24 C17          3.9240    -6.8180    -3.8450 ca         1 ARQ      -0.086000
     25 C18          5.1570    -6.5390    -3.2860 ca         1 ARQ      -0.079500
     26 C19          5.4860    -5.2390    -2.9500 ca         1 ARQ      -0.051000
     27 C20          3.3510    -4.4960    -3.7380 ca         1 ARQ      -0.086000
     28 C21          4.5820    -4.2180    -3.1750 ca         1 ARQ      -0.079500
     29 N3           1.1710    -7.6550    -3.0380 ns         1 ARQ      -0.343300
     30 C23          1.3170    -8.7700    -3.7810 c          1 ARQ       0.655700
     31 O2           1.0620    -8.7470    -4.9690 o          1 ARQ      -0.610100
     32 C27          1.7870   -10.0220    -3.1510 ca         1 ARQ      -0.202600
     33 C26          1.9390   -11.1780    -3.9170 ca         1 ARQ      -0.041500
     34 C25          2.3780   -12.3440    -3.3230 ca         1 ARQ      -0.096000
     35 C24          2.6680   -12.3670    -1.9700 ca         1 ARQ      -0.033000
     36 C28          2.0860   -10.0520    -1.7880 ca         1 ARQ      -0.041500
     37 C29          2.5190   -11.2240    -1.2040 ca         1 ARQ      -0.096000
     38 H21A         1.8920    -0.6730     0.7690 hc         1 ARQ       0.022811
     39 H22          1.8920     1.0020     0.1980 hc         1 ARQ       0.022811
     40 H23          1.8920    -0.3290    -0.9670 hc         1 ARQ       0.022811
     41 H31         -1.5400    -0.3360     1.4620 hc         1 ARQ       0.022811
     42 H32         -0.4500     1.0030     1.8470 hc         1 ARQ       0.022811
     43 H33          0.0990    -0.6670     2.0410 hc         1 ARQ       0.022811
     44 H41         -0.1580     2.1340    -0.2010 hc         1 ARQ       0.022811
     45 H42         -1.5920     1.2440    -0.7320 hc         1 ARQ       0.022811
     46 H43         -0.1370     1.2570    -1.7370 hc         1 ARQ       0.022811
     47 HN1         -1.1640    -3.4150    -1.6900 hn         1 ARQ       0.183500
     48 H5           0.7490    -4.8180     0.0430 h1         1 ARQ       0.069700
     49 H61         -2.2520    -5.1860     0.3540 hc         1 ARQ       0.024200
     50 H62         -1.0340    -6.2670     1.0430 hc         1 ARQ       0.024200
     51 H8          -2.5450    -2.9290     1.2030 ha         1 ARQ       0.098000
     52 H9          -2.2970    -1.4200     3.1370 ha         1 ARQ       0.108000
     53 H10         -0.7020    -1.9710     4.9340 ha         1 ARQ       0.108000
     54 H11          0.3920    -5.5450     2.8670 ha         1 ARQ       0.098000
     55 H12          0.6420    -4.0340     4.8000 ha         1 ARQ       0.108000
     56 H13         -0.0610    -6.8330    -1.1410 h1         1 ARQ       0.018700
     57 HO1         -2.1200    -6.6020    -1.6730 ho         1 ARQ       0.426000
     58 H141         1.6430    -5.2820    -2.1730 hx         1 ARQ       0.103200
     59 H142         0.3240    -4.5180    -3.0700 hx         1 ARQ       0.103200
     60 H221        -1.1330    -5.7740    -4.2270 hx         1 ARQ       0.087033
     61 H222        -0.4890    -7.0940    -5.2120 hx         1 ARQ       0.087033
     62 H223        -1.1400    -7.4280    -3.6010 hx         1 ARQ       0.087033
     63 H151         1.7780    -6.9080    -5.3930 hx         1 ARQ       0.103200
     64 H152         1.2990    -5.2180    -5.1820 hx         1 ARQ       0.103200
     65 H17          3.6660    -7.8370    -4.1070 ha         1 ARQ       0.112500
     66 H18          5.8650    -7.3400    -3.1100 ha         1 ARQ       0.124000
     67 H19          6.4520    -5.0210    -2.5100 ha         1 ARQ       0.123000
     68 H20          2.6430    -3.6950    -3.9150 ha         1 ARQ       0.112500
     69 H21          4.8410    -3.1980    -2.9150 ha         1 ARQ       0.124000
     70 HN3          1.4250    -7.6630    -2.0700 hn         1 ARQ       0.267500
     71 H26          1.7120   -11.1610    -4.9770 ha         1 ARQ       0.108500
     72 H25          2.4960   -13.2420    -3.9170 ha         1 ARQ       0.122500
     73 H24          3.0100   -13.2850    -1.5080 ha         1 ARQ       0.119000
     74 H28          1.9700    -9.1580    -1.1870 ha         1 ARQ       0.108500
     75 H29          2.7500   -11.2490    -0.1460 ha         1 ARQ       0.122500
@<TRIPOS>BOND
     1     1     2 1   
     2     1     3 1   
     3     1     4 1   
     4     1     5 1   
     5     2    38 1   
     6     2    39 1   
     7     2    40 1   
     8     3    41 1   
     9     3    42 1   
    10     3    43 1   
    11     4    44 1   
    12     4    45 1   
    13     4    46 1   
    14     5     6 1   
    15     6     7 2   
    16     6     8 1   
    17     8     9 1   
    18     8    47 1   
    19     9    10 1   
    20     9    17 1   
    21     9    48 1   
    22    10    11 1   
    23    10    49 1   
    24    10    50 1   
    25    11    12 ar  
    26    11    15 ar  
    27    12    13 ar  
    28    12    51 1   
    29    13    14 ar  
    30    13    52 1   
    31    14    16 ar  
    32    14    53 1   
    33    15    16 ar  
    34    15    54 1   
    35    16    55 1   
    36    17    18 1   
    37    17    19 1   
    38    17    56 1   
    39    18    57 1   
    40    19    20 1   
    41    19    58 1   
    42    19    59 1   
    43    20    21 1   
    44    20    22 1   
    45    20    29 1   
    46    21    60 1   
    47    21    61 1   
    48    21    62 1   
    49    22    23 1   
    50    22    63 1   
    51    22    64 1   
    52    23    24 ar  
    53    23    27 ar  
    54    24    25 ar  
    55    24    65 1   
    56    25    26 ar  
    57    25    66 1   
    58    26    28 ar  
    59    26    67 1   
    60    27    28 ar  
    61    27    68 1   
    62    28    69 1   
    63    29    30 1   
    64    29    70 1   
    65    30    31 2   
    66    30    32 1   
    67    32    33 ar  
    68    32    36 ar  
    69    33    34 ar  
    70    33    71 1   
    71    34    35 ar  
    72    34    72 1   
    73    35    37 ar  
    74    35    73 1   
    75    36    37 ar  
    76    36    74 1   
    77    37    75 1   
@<TRIPOS>SUBSTRUCTURE
     1 ARQ         1 TEMP              0 ****  ****    0 ROOT
