@<TRIPOS>MOLECULE
ARR
   45    47     1     0     0
SMALL
bcc


@<TRIPOS>ATOM
      1 S            0.0000     0.0000     0.0000 ss         1 ARR      -0.273800
      2 C1           1.7340     0.0000     0.0000 cc         1 ARR       0.034900
      3 C2           2.0430     0.0000     1.3200 cd         1 ARR      -0.155000
      4 C3           1.0280     0.0060     2.2470 cd         1 ARR      -0.108000
      5 C4          -0.2690     0.0010     1.7630 cc         1 ARR      -0.068000
      6 C5          -1.5370     0.0040     2.5080 ce         1 ARR       0.547800
      7 N3          -1.5270     0.0040     3.8140 n2         1 ARR      -0.750100
      8 N1          -2.7380     0.0040     1.8270 nu         1 ARR      -0.266600
      9 C6          -3.9400     0.1160     2.5300 ca         1 ARR       0.005600
     10 C10         -3.9960     0.8620     3.6990 ca         1 ARR      -0.123500
     11 C11         -5.1860     0.9700     4.3920 ca         1 ARR      -0.077000
     12 C9          -6.3210     0.3360     3.9230 ca         1 ARR      -0.114300
     13 C8          -6.2680    -0.4110     2.7620 ca         1 ARR      -0.077000
     14 C7          -5.0830    -0.5190     2.0610 ca         1 ARR      -0.123500
     15 C12         -7.6170     0.4560     4.6810 c3         1 ARR       0.032900
     16 C13         -8.3950     1.6700     4.1740 c3         1 ARR       0.135800
     17 N2          -9.6590     1.7880     4.9130 n7         1 ARR      -0.575200
     18 C14        -10.3530     2.9670     4.3790 c3         1 ARR       0.196100
     19 C15        -11.6650     3.1460     5.0990 ca         1 ARR      -0.085300
     20 C20        -12.8060     2.5350     4.6170 ca         1 ARR      -0.097000
     21 C19        -14.0120     2.7050     5.2740 ca         1 ARR      -0.032600
     22 C18        -14.0720     3.4760     6.4200 ca         1 ARR      -0.099000
     23 C17        -12.9290     4.0810     6.9060 ca         1 ARR      -0.091000
     24 C16        -11.7250     3.9150     6.2460 ca         1 ARR      -0.077000
     25 Cl         -15.4480     1.9450     4.6630 cl         1 ARR      -0.031400
     26 H1           2.4070    -0.0020    -0.8490 h4         1 ARR       0.165000
     27 H2           3.0780     0.0010     1.6410 ha         1 ARR       0.119000
     28 H3           1.2330     0.0070     3.3100 ha         1 ARR       0.122000
     29 HN3         -0.6560     0.0030     4.3080 hn         1 ARR       0.332400
     30 HN1         -2.7500    -0.1260     0.8340 hn         1 ARR       0.288800
     31 H10         -3.1070     1.3590     4.0680 ha         1 ARR       0.122000
     32 H11         -5.2300     1.5540     5.3040 ha         1 ARR       0.105000
     33 H8          -7.1590    -0.9070     2.3960 ha         1 ARR       0.105000
     34 H7          -5.0430    -1.1060     1.1510 ha         1 ARR       0.122000
     35 H121        -8.2080    -0.4400     4.5310 hc         1 ARR       0.022700
     36 H122        -7.4070     0.5770     5.7370 hc         1 ARR       0.022700
     37 H131        -8.6040     1.5490     3.1180 h1         1 ARR       0.010200
     38 H132        -7.8040     2.5660     4.3240 h1         1 ARR       0.010200
     39 HN2        -10.2160     0.9720     4.7530 hn         1 ARR       0.255800
     40 H141        -9.7370     3.8460     4.5270 h1         1 ARR       0.012700
     41 H142       -10.5370     2.8290     3.3210 h1         1 ARR       0.012700
     42 H20        -12.7590     1.9300     3.7190 ha         1 ARR       0.114000
     43 H18        -15.0160     3.6070     6.9360 ha         1 ARR       0.114000
     44 H17        -12.9750     4.6850     7.8040 ha         1 ARR       0.106000
     45 H16        -10.8290     4.3900     6.6270 ha         1 ARR       0.111000
@<TRIPOS>BOND
     1     1     2 1   
     2     1     5 1   
     3     2     3 2   
     4     2    26 1   
     5     3     4 1   
     6     3    27 1   
     7     4     5 2   
     8     4    28 1   
     9     5     6 1   
    10     6     7 2   
    11     6     8 1   
    12     7    29 1   
    13     8     9 1   
    14     8    30 1   
    15     9    10 ar  
    16     9    14 ar  
    17    10    11 ar  
    18    10    31 1   
    19    11    12 ar  
    20    11    32 1   
    21    12    13 ar  
    22    12    15 1   
    23    13    14 ar  
    24    13    33 1   
    25    14    34 1   
    26    15    16 1   
    27    15    35 1   
    28    15    36 1   
    29    16    17 1   
    30    16    37 1   
    31    16    38 1   
    32    17    18 1   
    33    17    39 1   
    34    18    19 1   
    35    18    40 1   
    36    18    41 1   
    37    19    20 ar  
    38    19    24 ar  
    39    20    21 ar  
    40    20    42 1   
    41    21    22 ar  
    42    21    25 1   
    43    22    23 ar  
    44    22    43 1   
    45    23    24 ar  
    46    23    44 1   
    47    24    45 1   
@<TRIPOS>SUBSTRUCTURE
     1 ARR         1 TEMP              0 ****  ****    0 ROOT
