@<TRIPOS>MOLECULE
molecule
   57    59     1     0     0
SMALL
bcc


@<TRIPOS>ATOM
      1 N1           0.0000     0.0000     0.0000 nb         1 ARU      -0.809000
      2 C2           1.3200     0.0000     0.0000 ca         1 ARU       0.620900
      3 N3           2.0260     0.0000     1.1110 nb         1 ARU      -0.790000
      4 C4           1.4240    -0.0010     2.2960 ca         1 ARU       0.464800
      5 C5           0.0210    -0.0010     2.3490 ca         1 ARU      -0.167200
      6 C6          -0.6890    -0.0010     1.1370 ca         1 ARU       0.582200
      7 N6          -2.0720    -0.0010     1.1250 nh         1 ARU      -0.675300
      8 N7          -0.3290    -0.0030     3.6580 nc         1 ARU      -0.617100
      9 C8           0.7440    -0.0020     4.3930 cd         1 ARU       0.419700
     10 N9           1.8520    -0.0020     3.6000 na         1 ARU      -0.250000
     11 C1'          3.2440    -0.0020     4.0550 c3         1 ARU       0.257800
     12 C2'          3.8020     1.4430     4.1060 c3         1 ARU       0.083100
     13 O2'          4.3230     1.8330     2.8340 oh         1 ARU      -0.573800
     14 C3'          4.9380     1.3160     5.1520 c3         1 ARU       0.079100
     15 O3'          6.2000     1.1540     4.5010 oh         1 ARU      -0.588800
     16 C4'          4.5760     0.0480     5.9500 c3         1 ARU       0.116100
     17 O4'          3.3310    -0.4450     5.4270 os         1 ARU      -0.369600
     18 C5'          4.4160     0.3960     7.4320 c3         1 ARU       0.235400
     19 O5'          4.1960    -0.8020     8.1800 os         1 ARU      -0.582200
     20 CAA         -2.4440     1.4010    -0.8480 c3         1 ARU      -0.085100
     21 CAB         -2.5890     0.0000    -0.2500 c3         1 ARU       0.163300
     22 CAD         -2.6060    -1.1390     1.8860 c3         1 ARU       0.163300
     23 CAE         -4.0830    -0.8970     2.1990 c3         1 ARU      -0.085100
     24 OAF          5.3510    -5.2980    13.8580 o          1 ARU      -0.794167
     25 BrAG         5.2150    -5.5370    10.4030 br         1 ARU      -0.250900
     26 OAH          5.4350    -2.7080    12.3940 o          1 ARU      -0.793500
     27 OAI          5.1280    -0.1340    10.4290 o          1 ARU      -0.849000
     28 OAJ          2.8460    -5.0920    14.0900 o          1 ARU      -0.794167
     29 PAK          3.9130    -5.6180    13.2100 p5         1 ARU       1.076700
     30 CAL          3.7980    -4.8320    11.5700 c3         1 ARU      -0.061600
     31 PAM          3.9980    -3.0290    11.7450 p5         1 ARU       1.261600
     32 OAN          3.8960    -2.3340    10.2960 os         1 ARU      -0.712800
     33 PAO          3.9850    -0.8130     9.7760 p5         1 ARU       1.433800
     34 OAV          3.7370    -7.2110    13.0550 o          1 ARU      -0.794167
     35 BrAW         2.0420    -5.2230    10.7770 br         1 ARU      -0.250900
     36 OAX          2.9300    -2.4970    12.6230 o          1 ARU      -0.793500
     37 OAY          2.6210    -0.0380    10.1420 o          1 ARU      -0.849000
     38 H2           1.8410     0.0010    -0.9490 h5         1 ARU       0.022100
     39 H8           0.7550    -0.0020     5.4760 h5         1 ARU       0.110800
     40 H1'          3.8610    -0.6240     3.4170 h2         1 ARU       0.094700
     41 H2'          3.0420     2.1350     4.4480 h1         1 ARU       0.054700
     42 HO2'         4.2150     2.7630     2.7220 ho         1 ARU       0.381000
     43 H3'          4.9490     2.1810     5.8030 h1         1 ARU       0.047700
     44 HO3'         6.8160     1.7760     4.8510 ho         1 ARU       0.389000
     45 H4'          5.3490    -0.6990     5.8220 h1         1 ARU       0.083700
     46 H5'          5.3160     0.8830     7.7880 h1         1 ARU       0.026200
     47 H5'A         3.5710     1.0610     7.5590 h1         1 ARU       0.026200
     48 HAA         -2.1010     2.0870    -0.0830 hc         1 ARU       0.028367
     49 HAAA        -1.7250     1.3750    -1.6580 hc         1 ARU       0.028367
     50 HAAB        -3.4030     1.7320    -1.2270 hc         1 ARU       0.028367
     51 HAB         -2.0260    -0.7070    -0.8470 h1         1 ARU       0.043450
     52 HABA        -3.6340    -0.2830    -0.2430 h1         1 ARU       0.043450
     53 HAD         -2.0540    -1.2450     2.8120 h1         1 ARU       0.043450
     54 HADA        -2.5050    -2.0440     1.3000 h1         1 ARU       0.043450
     55 HAE         -4.6910    -1.2740     1.3860 hc         1 ARU       0.028367
     56 HAEA        -4.2570     0.1660     2.3180 hc         1 ARU       0.028367
     57 HAEB        -4.3470    -1.4100     3.1160 hc         1 ARU       0.028367
@<TRIPOS>BOND
     1     1     2 ar
     2     1     6 ar
     3     2     3 ar
     4     3     4 ar
     5     4     5 ar
     6     4    10 1
     7     5     6 ar
     8     5     8 1
     9     6     7 1
    10     7    21 1
    11     7    22 1
    12     8     9 2
    13     9    10 1
    14    10    11 1
    15    11    12 1
    16    11    17 1
    17    12    13 1
    18    12    14 1
    19    14    15 1
    20    14    16 1
    21    16    17 1
    22    16    18 1
    23    18    19 1
    24    19    33 1
    25    20    21 1
    26    22    23 1
    27    24    29 1
    28    25    30 1
    29    26    31 1
    30    27    33 1
    31    28    29 1
    32    29    30 1
    33    29    34 1
    34    30    31 1
    35    30    35 1
    36    31    32 1
    37    31    36 1
    38    32    33 1
    39    33    37 1
    40     2    38 1
    41     9    39 1
    42    11    40 1
    43    12    41 1
    44    13    42 1
    45    14    43 1
    46    15    44 1
    47    16    45 1
    48    18    46 1
    49    18    47 1
    50    20    48 1
    51    20    49 1
    52    20    50 1
    53    21    51 1
    54    21    52 1
    55    22    53 1
    56    22    54 1
    57    23    55 1
    58    23    56 1
    59    23    57 1
@<TRIPOS>SUBSTRUCTURE
     1 ARU         1 TEMP              0 ****  ****    0 ROOT
