@<TRIPOS>MOLECULE
ARW
   23    23     1     0     0
SMALL
bcc


@<TRIPOS>ATOM
      1 C1          0.0290   -0.1110    0.0500 c3        1 ARW      0.297900
      2 C2          1.5680   -0.1620   -0.0040 c3        1 ARW      0.135100
      3 C3          2.1380   -0.0630    1.4230 c3        1 ARW      0.146100
      4 C4          1.5260    1.1510    2.1420 c3        1 ARW      0.069100
      5 C5         -0.0040    1.1050    2.0830 c3        1 ARW      0.109400
      6 O1         -0.4340    0.1020   -1.2660 os        1 ARW     -0.427600
      7 O2          2.1380    0.9060   -0.7380 oh        1 ARW     -0.599800
      8 O3          1.8140   -1.2780    2.0760 oh        1 ARW     -0.605800
      9 O4          1.9720    1.0800    3.4880 oh        1 ARW     -0.605800
     10 O5         -0.4610    1.0360    0.7410 os        1 ARW     -0.436600
     11 CM         -1.8490    0.0410   -1.4000 c3        1 ARW      0.126700
     12 H1         -0.3860   -1.0500    0.5100 h2        1 ARW      0.064700
     13 HA          1.8790   -1.1370   -0.4720 h1        1 ARW      0.071700
     14 H3          3.2560    0.0600    1.3760 h1        1 ARW      0.070700
     15 H4          1.9030    2.0880    1.6470 h1        1 ARW      0.073700
     16 H5C1       -0.4550    2.0510    2.4810 h1        1 ARW      0.057700
     17 H5C2       -0.3780    0.2210    2.6660 h1        1 ARW      0.057700
     18 H2          1.5270    1.1230   -1.4550 ho        1 ARW      0.432000
     19 HB          2.0960   -1.1780    2.9950 ho        1 ARW      0.427000
     20 HC          1.6460    1.8710    3.9330 ho        1 ARW      0.411000
     21 HMC1       -2.0220    0.1990   -2.4930 h1        1 ARW      0.042367
     22 HMC2       -2.3340    0.8470   -0.7980 h1        1 ARW      0.042367
     23 HMC3       -2.2240   -0.9620   -1.0790 h1        1 ARW      0.042367
@<TRIPOS>BOND
     1    1    2 1   
     2    1    6 1   
     3    1   10 1   
     4    1   12 1   
     5    2    3 1   
     6    2    7 1   
     7    2   13 1   
     8    3    4 1   
     9    3    8 1   
    10    3   14 1   
    11    4    5 1   
    12    4    9 1   
    13    4   15 1   
    14    5   10 1   
    15    5   16 1   
    16    5   17 1   
    17    6   11 1   
    18    7   18 1   
    19    8   19 1   
    20    9   20 1   
    21   11   21 1   
    22   11   22 1   
    23   11   23 1   
@<TRIPOS>SUBSTRUCTURE
     1 ARW         1 TEMP              0 ****  ****    0 ROOT
