@<TRIPOS>MOLECULE
molecule
   23    23     1     0     0
SMALL
bcc


@<TRIPOS>ATOM
      1 C1           0.0000     0.0000     0.0000 c3         1 ARW       0.320900
      2 C2           1.5290     0.0000     0.0000 c3         1 ARW       0.115100
      3 C3           2.0280     0.0000     1.4490 c3         1 ARW       0.125100
      4 C4           1.3780     1.1730     2.1890 c3         1 ARW       0.109100
      5 C5          -0.1410     1.0860     2.0250 c3         1 ARW       0.122400
      6 O1          -0.4770    -0.0330    -1.3460 os         1 ARW      -0.394600
      7 O2           2.0110     1.1640    -0.6720 oh         1 ARW      -0.582800
      8 O3           1.6690    -1.2280     2.0860 oh         1 ARW      -0.593800
      9 O4           1.7120     1.1080     3.5770 oh         1 ARW      -0.596800
     10 O5          -0.4820     1.1780     0.6430 os         1 ARW      -0.414600
     11 CM          -1.9030    -0.0340    -1.2820 c3         1 ARW       0.118700
     12 H1          -0.3580    -0.8720     0.5350 h2         1 ARW       0.052700
     13 HA           1.8890    -0.8890    -0.5040 h1         1 ARW       0.053700
     14 H3           3.1050     0.1190     1.4600 h1         1 ARW       0.046700
     15 H4           1.7340     2.1060     1.7690 h1         1 ARW       0.065700
     16 H5C1        -0.4920     0.1390     2.4180 h1         1 ARW       0.062700
     17 H5C2        -0.6080     1.9010     2.5640 h1         1 ARW       0.062700
     18 H2           2.5870     0.9070    -1.3720 ho         1 ARW       0.406000
     19 HB           2.4510    -1.7040     2.3130 ho         1 ARW       0.409000
     20 HC           2.0750     1.9340     3.8520 ho         1 ARW       0.402000
     21 HMC1        -2.3080    -0.3170    -2.2460 h1         1 ARW       0.036700
     22 HMC2        -2.2300    -0.7430    -0.5310 h1         1 ARW       0.036700
     23 HMC3        -2.2540     0.9570    -1.0200 h1         1 ARW       0.036700
@<TRIPOS>BOND
     1     1     2 1
     2     1     6 1
     3     1    10 1
     4     1    12 1
     5     2     3 1
     6     2     7 1
     7     2    13 1
     8     3     4 1
     9     3     8 1
    10     3    14 1
    11     4     5 1
    12     4     9 1
    13     4    15 1
    14     5    10 1
    15     5    16 1
    16     5    17 1
    17     6    11 1
    18     7    18 1
    19     8    19 1
    20     9    20 1
    21    11    21 1
    22    11    22 1
    23    11    23 1
@<TRIPOS>SUBSTRUCTURE
     1 ARW         1 TEMP              0 ****  ****    0 ROOT
