@<TRIPOS>MOLECULE
ARZ
   41    45     1     0     0
SMALL
bcc


@<TRIPOS>ATOM
      1 NAA          0.0000     0.0000     0.0000 nz         1 ARZ       0.130000
      2 OAB          3.5030     5.9670    -1.2070 o          1 ARZ      -0.267000
      3 OAC          2.0570     0.0000     1.3640 o          1 ARZ      -0.752500
      4 OAD          2.0570    -0.9990    -0.9270 o          1 ARZ      -0.752500
      5 CAE          3.6000     9.4260    -4.5920 c3         1 ARZ      -0.307000
      6 CAF          5.9850     8.7460    -4.2950 c3         1 ARZ      -0.122000
      7 CAG          4.6000     7.6900    -6.0850 DU         1 ARZ      -0.014000
      8 CAH          4.2800     8.0950    -2.5900 c3         1 ARZ      -0.084000
      9 CAI          2.8940     7.0380    -4.3810 c3         1 ARZ      -0.096000
     10 CAJ          5.2810     6.3580    -4.0840 c3         1 ARZ      -0.081000
     11 NAK          2.7730     3.6360    -0.6710 n2         1 ARZ      -0.063000
     12 NAL          2.4040     2.6300    -0.0050 n2         1 ARZ       0.206000
     13 SAN          2.4870     1.8840    -2.3750 ss         1 ARZ       0.357000
     14 CAO          3.5810     5.7230    -2.3940 c2         1 ARZ       0.187000
     15 CAP          2.8930     3.4950    -1.9570 c2         1 ARZ      -0.173000
     16 CAQ          2.1780     1.5430    -0.6710 c2         1 ARZ      -0.935000
     17 CAR          4.7130     9.1870    -3.5700 c3         1 ARZ      -0.058000
     18 CAS          3.3270     8.1300    -5.3600 c3         1 ARZ      -0.112000
     19 CAT          5.7130     7.4520    -5.0630 c3         1 ARZ      -0.335000
     20 CAU          4.0070     6.7990    -3.3580 c3         1 ARZ      -0.114000
     21 SAV          1.6560     0.0000     0.0000 s6         1 ARZ       2.320000
     22 HNAA        -0.3390     0.7400    -0.5830 hn         1 ARZ       0.116333
     23 HNAB        -0.3340    -0.8920    -0.3060 hn         1 ARZ       0.116333
     24 HAF          6.7480     8.6040    -3.5390 hc         1 ARZ       0.085000
     25 HAFA         6.2770     9.5220    -4.9930 hc         1 ARZ       0.085000
     26 HAG          4.9280     8.7120    -6.2330 ha         1 ARZ       0.096500
     27 HAGA         4.6310     7.2840    -7.0890 ha         1 ARZ       0.096500
     28 HAH          3.3470     8.3920    -2.1270 hc         1 ARZ       0.084000
     29 HAHA         4.9990     8.0170    -1.7840 hc         1 ARZ       0.084000
     30 HAI          2.7120     6.1430    -4.9630 hc         1 ARZ       0.066000
     31 HAIA         1.9780     7.2850    -3.8580 hc         1 ARZ       0.066000
     32 HAJ          6.0600     6.1300    -3.3680 hc         1 ARZ       0.066500
     33 HAJA         5.0440     5.4660    -4.6500 hc         1 ARZ       0.066500
     34 HAR          4.9570    10.1130    -3.0640 hc         1 ARZ       0.095000
     35 HAS          2.5620     8.3010    -6.1070 hc         1 ARZ       0.097000
     36 HAT          4.6790     7.7460    -5.1920 DU         1 ARZ       0.173000
     37 HAE          4.4480     8.8580    -4.9550 hc         1 ARZ       0.122500
     38 HAA3        -0.3130    -0.0460     0.9490 hn         1 ARZ       0.116333
     39 NAM          3.2860     4.4890    -2.8470 ns         1 ARZ       0.195000
     40 HAEA         3.6250    10.3540    -5.1490 hc         1 ARZ       0.122500
     41 HNAM         3.5710     4.2800    -3.7840 hn         1 ARZ       0.115000
@<TRIPOS>BOND
     1     1    21 1   
     2     1    22 1   
     3     1    23 1   
     4     1    38 1   
     5     2    14 1   
     6     3    21 1   
     7     4    21 1   
     8     5    17 1   
     9     5    18 1   
    10     5    37 1   
    11     5    40 1   
    12     6    17 1   
    13     6    19 1   
    14     6    24 1   
    15     6    25 1   
    16     7    18 1   
    17     7    19 1   
    18     7    26 1   
    19     7    27 1   
    20     7    36 1   
    21     8    17 1   
    22     8    20 1   
    23     8    28 1   
    24     8    29 1   
    25     9    18 1   
    26     9    20 1   
    27     9    30 1   
    28     9    31 1   
    29    10    19 1   
    30    10    20 1   
    31    10    32 1   
    32    10    33 1   
    33    11    12 1   
    34    11    15 1   
    35    12    16 1   
    36    13    15 1   
    37    13    16 1   
    38    14    20 1   
    39    14    39 1   
    40    15    39 1   
    41    16    21 1   
    42    17    34 1   
    43    18    35 1   
    44    19    36 1   
    45    39    41 1   
@<TRIPOS>SUBSTRUCTURE
     1 ARZ         1 TEMP              0 ****  ****    0 ROOT
