@<TRIPOS>MOLECULE
AS0
   68    72     1     0     0
SMALL
bcc


@<TRIPOS>ATOM
      1 C1          0.1700   -0.4900   -0.0870 c3        1 AS0      0.110700
      2 C3          2.0250   -0.0910    1.3170 c3        1 AS0      0.105400
      3 C4          3.5570    0.0060    1.3200 c3        1 AS0      0.161800
      4 C5          4.0440    0.1230    2.7920 c3        1 AS0     -0.109400
      5 C6          4.4510    1.5760    3.0300 c3        1 AS0     -0.070400
      6 O2          1.5840   -0.4270    0.0050 os        1 AS0     -0.408600
      7 C7          3.9890    2.3240    1.7860 c3        1 AS0     -0.067700
      8 C8          4.6840    3.6250    1.4400 c3        1 AS0     -0.018500
      9 C9          4.6220    4.5670    2.6340 c3        1 AS0     -0.073400
     10 C10         5.0850    5.9550    2.2520 c3        1 AS0     -0.055200
     11 C11         4.2410    6.4840    1.1450 ce        1 AS0      0.002800
     12 C12         3.8090    7.7600    1.1540 cf        1 AS0     -0.258200
     13 C13         2.9570    8.3170    0.0970 c         1 AS0      0.568300
     14 O14         2.6460    9.5140    0.0610 o         1 AS0     -0.538100
     15 C15         2.4520    7.3350   -0.9210 c3        1 AS0     -0.178400
     16 C16         3.4440    6.2220   -1.1870 c3        1 AS0     -0.037200
     17 C17         3.9130    5.5520    0.0630 ce        1 AS0     -0.105200
     18 C18         4.0840    4.2120    0.1890 c2        1 AS0     -0.062400
     19 C19         3.7210    3.2760   -0.9340 c3        1 AS0      0.014800
     20 C20         3.3410    1.8420   -0.5390 c3        1 AS0     -0.055400
     21 C21         4.1190    1.2990    0.6420 c3        1 AS0     -0.026000
     22 C22         5.5630    1.0330    0.2410 c3        1 AS0     -0.082100
     23 C23         4.7470    3.2770   -2.0330 ca        1 AS0     -0.054300
     24 C24         4.3870    2.7540   -3.2850 ca        1 AS0     -0.137500
     25 C25         5.2950    2.7450   -4.3370 ca        1 AS0     -0.098500
     26 C26         6.5900    3.2640   -4.1680 ca        1 AS0     -0.164900
     27 C27         7.5040    3.2290   -5.3060 ce        1 AS0      0.413800
     28 N28         8.7120    3.6750   -5.4830 n2        1 AS0     -0.447200
     29 O29         9.3190    4.2960   -4.4990 oh        1 AS0     -0.358500
     30 C30         6.9480    3.7890   -2.9210 ca        1 AS0     -0.098500
     31 C31         6.0340    3.7940   -1.8670 ca        1 AS0     -0.137500
     32 O32         4.1610   -1.1110    0.6740 os        1 AS0     -0.398600
     33 C33         3.6710   -2.3760    1.0840 c3        1 AS0      0.113700
     34 H11        -0.0260   -0.7730   -1.1510 h1        1 AS0      0.033700
     35 H12A       -0.2850    0.5040    0.1460 h1        1 AS0      0.033700
     36 H13        -0.2370   -1.2670    0.6070 h1        1 AS0      0.033700
     37 H31A        1.6920   -0.8940    2.0310 h1        1 AS0      0.033200
     38 H32         1.5750    0.8860    1.6370 h1        1 AS0      0.033200
     39 H51         3.2420   -0.1860    3.5050 hc        1 AS0      0.052700
     40 H52         4.9180   -0.5590    2.9390 hc        1 AS0      0.052700
     41 H61         5.5590    1.6620    3.1560 hc        1 AS0      0.045700
     42 H62         3.9700    1.9900    3.9490 hc        1 AS0      0.045700
     43 H7          2.8930    2.5610    1.9200 hc        1 AS0      0.049700
     44 H8          5.7740    3.4220    1.2190 hc        1 AS0      0.068700
     45 H91         5.2700    4.1600    3.4530 hc        1 AS0      0.049700
     46 H92         3.5730    4.6150    3.0270 hc        1 AS0      0.049700
     47 H101        6.1550    5.9220    1.9090 hc        1 AS0      0.058200
     48 H102        5.0410    6.6310    3.1460 hc        1 AS0      0.058200
     49 H12         4.0770    8.4530    1.9680 ha        1 AS0      0.149000
     50 H151        1.4890    6.9070   -0.5320 hc        1 AS0      0.072700
     51 H152        2.2200    7.8700   -1.8800 hc        1 AS0      0.072700
     52 H161        4.3490    6.6460   -1.7060 hc        1 AS0      0.059700
     53 H162        2.9750    5.4990   -1.9050 hc        1 AS0      0.059700
     54 H19         2.7680    3.6850   -1.3990 hc        1 AS0      0.060700
     55 H201        2.2450    1.8350   -0.2920 hc        1 AS0      0.058700
     56 H202        3.4810    1.1600   -1.4180 hc        1 AS0      0.058700
     57 H221        6.0240    1.9410   -0.2160 hc        1 AS0      0.045033
     58 H222        6.1620    0.7240    1.1300 hc        1 AS0      0.045033
     59 H223        5.5980    0.2080   -0.5130 hc        1 AS0      0.045033
     60 H24         3.3760    2.3450   -3.4340 ha        1 AS0      0.136500
     61 H25         4.9960    2.3280   -5.3100 ha        1 AS0      0.143000
     62 H27         7.1060    2.7250   -6.2140 h4        1 AS0      0.026800
     63 HO29       10.1940    4.5400   -4.8650 ho        1 AS0      0.438000
     64 H30         7.9560    4.2040   -2.7600 ha        1 AS0      0.143000
     65 H31         6.3370    4.2160   -0.8960 ha        1 AS0      0.136500
     66 H331        4.3910   -3.1050    0.6330 h1        1 AS0      0.034700
     67 H332        2.6420   -2.5430    0.6770 h1        1 AS0      0.034700
     68 H333        3.6670   -2.4680    2.1980 h1        1 AS0      0.034700
@<TRIPOS>BOND
     1    1    6 1   
     2    1   34 1   
     3    1   35 1   
     4    1   36 1   
     5    2    3 1   
     6    2    6 1   
     7    2   37 1   
     8    2   38 1   
     9    3    4 1   
    10    3   21 1   
    11    3   32 1   
    12    4    5 1   
    13    4   39 1   
    14    4   40 1   
    15    5    7 1   
    16    5   41 1   
    17    5   42 1   
    18    7    8 1   
    19    7   21 1   
    20    7   43 1   
    21    8    9 1   
    22    8   18 1   
    23    8   44 1   
    24    9   10 1   
    25    9   45 1   
    26    9   46 1   
    27   10   11 1   
    28   10   47 1   
    29   10   48 1   
    30   11   12 2   
    31   11   17 1   
    32   12   13 1   
    33   12   49 1   
    34   13   14 2   
    35   13   15 1   
    36   15   16 1   
    37   15   50 1   
    38   15   51 1   
    39   16   17 1   
    40   16   52 1   
    41   16   53 1   
    42   17   18 2   
    43   18   19 1   
    44   19   20 1   
    45   19   23 1   
    46   19   54 1   
    47   20   21 1   
    48   20   55 1   
    49   20   56 1   
    50   21   22 1   
    51   22   57 1   
    52   22   58 1   
    53   22   59 1   
    54   23   24 ar  
    55   23   31 ar  
    56   24   25 ar  
    57   24   60 1   
    58   25   26 ar  
    59   25   61 1   
    60   26   27 1   
    61   26   30 ar  
    62   27   28 2   
    63   27   62 1   
    64   28   29 1   
    65   29   63 1   
    66   30   31 ar  
    67   30   64 1   
    68   31   65 1   
    69   32   33 1   
    70   33   66 1   
    71   33   67 1   
    72   33   68 1   
@<TRIPOS>SUBSTRUCTURE
     1 AS0         1 TEMP              0 ****  ****    0 ROOT
