@<TRIPOS>MOLECULE
AS1
   36    35     1     0     0
SMALL
bcc


@<TRIPOS>ATOM
      1 O51          0.0000     0.0000     0.0000 o          1 AS1      -0.834800
      2 O52          1.8800     0.0340    -1.1620 o          1 AS1      -0.834800
      3 C5           1.2080     0.0000     0.0000 c          1 AS1       0.965600
      4 C4           1.9610     0.0000     1.3060 c3         1 AS1      -0.202500
      5 N4           1.0780     0.4730     2.3800 nz         1 AS1       0.080400
      6 C3           2.4330    -1.4210     1.6210 c3         1 AS1      -0.019400
      7 C2           3.3020    -1.4020     2.8800 c3         1 AS1      -0.058400
      8 C1           3.7750    -2.8230     3.1950 c3         1 AS1       0.196800
      9 N2           4.6070    -2.8040     4.4010 nu         1 AS1      -0.593200
     10 C            5.1480    -3.9730     4.8810 c2         1 AS1       0.584100
     11 N3           4.9210    -5.0980     4.2630 n2         1 AS1      -0.891100
     12 N1           5.9290    -3.9560     6.0120 nu         1 AS1      -0.351200
     13 CA           6.5060    -5.2020     6.5230 c3         1 AS1       0.043500
     14 CG           7.8010    -5.4870     5.8070 c          1 AS1       0.985600
     15 OG2          8.5100    -6.5850     6.1150 o          1 AS1      -0.925800
     16 OG1          8.2020    -4.7270     4.9580 o          1 AS1      -0.925800
     17 CB           6.7710    -5.0640     8.0230 c3         1 AS1      -0.127400
     18 CD           5.4630    -4.9020     8.7520 c          1 AS1       0.975600
     19 OD1          5.4510    -4.7620    10.0870 o          1 AS1      -0.930300
     20 OD2          4.4240    -4.8970     8.1350 o          1 AS1      -0.930300
     21 H4           2.8190     0.6570     1.2280 hx         1 AS1       0.085700
     22 HN41         0.4970     1.2110     2.0340 hn         1 AS1       0.210467
     23 HN42         1.6320     0.8130     3.1410 hn         1 AS1       0.210467
     24 H31          3.0110    -1.8030     0.7880 hc         1 AS1       0.055200
     25 H32          1.5730    -2.0590     1.7850 hc         1 AS1       0.055200
     26 H21          2.7240    -1.0210     3.7130 hc         1 AS1       0.003200
     27 H22          4.1620    -0.7640     2.7150 hc         1 AS1       0.003200
     28 H11          4.3540    -3.2040     2.3630 h1         1 AS1       0.016200
     29 H12          2.9150    -3.4610     3.3590 h1         1 AS1       0.016200
     30 HN2          4.8040    -1.9360     4.8600 hn         1 AS1       0.271800
     31 HN3          4.3520    -5.1110     3.4390 hn         1 AS1       0.287400
     32 HN1          6.1350    -3.0870     6.4640 hn         1 AS1       0.253800
     33 HA           5.8130    -6.0170     6.3520 h1         1 AS1       0.074700
     34 HB1          7.2780    -5.9510     8.3840 hc         1 AS1       0.020700
     35 HB2          7.3930    -4.1950     8.2010 hc         1 AS1       0.020700
     36 H43          0.5110    -0.2850     2.7040 hn         1 AS1       0.210467
@<TRIPOS>BOND
     1     1     3 1   
     2     2     3 1   
     3     3     4 1   
     4     4     5 1   
     5     4     6 1   
     6     4    21 1   
     7     5    22 1   
     8     5    23 1   
     9     5    36 1   
    10     6     7 1   
    11     6    24 1   
    12     6    25 1   
    13     7     8 1   
    14     7    26 1   
    15     7    27 1   
    16     8     9 1   
    17     8    28 1   
    18     8    29 1   
    19     9    10 1   
    20     9    30 1   
    21    10    11 2   
    22    10    12 1   
    23    11    31 1   
    24    12    13 1   
    25    12    32 1   
    26    13    14 1   
    27    13    17 1   
    28    13    33 1   
    29    14    15 1   
    30    14    16 1   
    31    17    18 1   
    32    17    34 1   
    33    17    35 1   
    34    18    19 1   
    35    18    20 1   
@<TRIPOS>SUBSTRUCTURE
     1 AS1         1 TEMP              0 ****  ****    0 ROOT
