@<TRIPOS>MOLECULE
molecule
   36    35     1     0     0
SMALL
bcc


@<TRIPOS>ATOM
      1 O51          0.0000     0.0000     0.0000 o          1 AS1      -0.793300
      2 O52          1.8800    -0.0030    -1.1620 o          1 AS1      -0.793300
      3 C5           1.2080     0.0000     0.0000 c          1 AS1       0.874600
      4 C4           1.9610     0.0000     1.3060 c3         1 AS1      -0.019500
      5 N4           1.0780     0.4730     2.3800 nz         1 AS1      -0.790600
      6 C3           2.4330    -1.4210     1.6210 c3         1 AS1      -0.086400
      7 C2           3.3020    -1.4020     2.8800 c3         1 AS1      -0.125400
      8 C1           3.7750    -2.8230     3.1950 c3         1 AS1       0.279800
      9 N2           4.6070    -2.8040     4.4010 nu         1 AS1      -0.914200
     10 C            5.1480    -3.9730     4.8810 c2         1 AS1       0.884100
     11 N3           4.9210    -5.0980     4.2630 n2         1 AS1      -1.034100
     12 N1           5.9290    -3.9560     6.0120 nu         1 AS1      -0.864200
     13 CA           6.5060    -5.2020     6.5230 c3         1 AS1       0.157500
     14 CG           7.8010    -5.4870     5.8070 c          1 AS1       0.873600
     15 OG2          8.5100    -6.5850     6.1150 o          1 AS1      -0.868300
     16 OG1          8.2020    -4.7270     4.9580 o          1 AS1      -0.868300
     17 CB           6.7710    -5.0640     8.0230 c3         1 AS1      -0.172400
     18 CD           5.4630    -4.9020     8.7520 c          1 AS1       0.883600
     19 OD1          5.4510    -4.7620    10.0870 o          1 AS1      -0.879300
     20 OD2          4.4240    -4.8970     8.1350 o          1 AS1      -0.879300
     21 H4           2.8190     0.6570     1.2280 hx         1 AS1       0.100700
     22 HN41         0.4970     1.2110     2.0340 hn         1 AS1       0.437133
     23 HN42         0.5040    -0.2830     2.6970 hn         1 AS1       0.437133
     24 H31          3.0110    -1.8030     0.7880 hc         1 AS1       0.087700
     25 H32          1.5730    -2.0590     1.7850 hc         1 AS1       0.087700
     26 H21          4.1620    -0.7640     2.7150 hc         1 AS1       0.026200
     27 H22          2.7240    -1.0210     3.7130 hc         1 AS1       0.026200
     28 H11          4.3540    -3.2040     2.3630 h1         1 AS1       0.051200
     29 H12          2.9150    -3.4610     3.3590 h1         1 AS1       0.051200
     30 HN2          4.8040    -1.9360     4.8600 hn         1 AS1       0.414800
     31 HN3          5.3150    -5.9500     4.6120 hn         1 AS1       0.420400
     32 HN1          6.1350    -3.0870     6.4640 hn         1 AS1       0.402800
     33 HA           5.8130    -6.0170     6.3520 h1         1 AS1       0.064700
     34 HB1          7.3930    -4.1950     8.2010 hc         1 AS1       0.044700
     35 HB2          7.2780    -5.9510     8.3840 hc         1 AS1       0.044700
     36 H43          1.6320     0.8110     3.1420 hn         1 AS1       0.437133
@<TRIPOS>BOND
     1     1     3 1
     2     2     3 1
     3     3     4 1
     4     4     5 1
     5     4     6 1
     6     4    21 1
     7     5    22 1
     8     5    23 1
     9     6     7 1
    10     6    24 1
    11     6    25 1
    12     7     8 1
    13     7    26 1
    14     7    27 1
    15     8     9 1
    16     8    28 1
    17     8    29 1
    18     9    10 1
    19     9    30 1
    20    10    11 2
    21    10    12 1
    22    11    31 1
    23    12    13 1
    24    12    32 1
    25    13    14 1
    26    13    17 1
    27    13    33 1
    28    14    15 1
    29    14    16 1
    30    17    18 1
    31    17    34 1
    32    17    35 1
    33    18    19 1
    34    18    20 1
    35    36     5 1
@<TRIPOS>SUBSTRUCTURE
     1 AS1         1 TEMP              0 ****  ****    0 ROOT
