@<TRIPOS>MOLECULE
AS3
   25    25     1     0     0
SMALL
bcc


@<TRIPOS>ATOM
      1 N8           0.0000     0.0000     0.0000 nv         1 AS3      -0.605500
      2 C1           1.3890     0.0000     0.0000 ca         1 AS3       0.505200
      3 N6           2.0460     0.0000     1.1510 nb         1 AS3      -0.614000
      4 C5           3.3650     0.0070     1.1950 ca         1 AS3       0.404600
      5 C9           4.0640     0.0130     2.5300 c3         1 AS3      -0.070700
      6 C10          3.5680     1.1980     3.3600 c3         1 AS3      -0.027400
      7 C11          4.2780     1.2040     4.7150 c3         1 AS3       0.004900
      8 C4           4.1120     0.0020     0.0340 ca         1 AS3      -0.252300
      9 C3           3.4620    -0.0050    -1.1940 ca         1 AS3      -0.033300
     10 C7           4.2460    -0.0100    -2.4800 c3         1 AS3       0.062200
     11 C2           2.0790    -0.0050    -1.2080 ca         1 AS3      -0.267300
     12 HN81        -0.5000     0.7020    -0.5090 hn         1 AS3       0.272300
     13 HN82        -0.5000    -0.7160     0.4880 hn         1 AS3       0.272300
     14 H91          5.1330     0.1010     2.3770 hc         1 AS3       0.021200
     15 H92          3.8490    -0.9110     3.0540 hc         1 AS3       0.021200
     16 H101         2.4990     1.1090     3.5130 hc         1 AS3       0.021200
     17 H102         3.7820     2.1210     2.8360 hc         1 AS3       0.021200
     18 H111         3.6970     1.7810     5.4240 hc         1 AS3      -0.000300
     19 H112         4.3800     0.1870     5.0740 hc         1 AS3      -0.000300
     20 H113         5.2600     1.6490     4.6060 hc         1 AS3      -0.000300
     21 H4           5.1950     0.0070     0.0800 ha         1 AS3       0.118000
     22 H71          3.6020    -0.3190    -3.2940 hc         1 AS3       0.009700
     23 H72          4.6230     0.9870    -2.6770 hc         1 AS3       0.009700
     24 H73          5.0770    -0.7000    -2.3950 hc         1 AS3       0.009700
     25 H2           1.5400    -0.0100    -2.1480 ha         1 AS3       0.119000
@<TRIPOS>BOND
     1     1     2 1   
     2     1    12 1   
     3     1    13 1   
     4     2     3 ar  
     5     2    11 ar  
     6     3     4 ar  
     7     4     5 1   
     8     4     8 ar  
     9     5     6 1   
    10     5    14 1   
    11     5    15 1   
    12     6     7 1   
    13     6    16 1   
    14     6    17 1   
    15     7    18 1   
    16     7    19 1   
    17     7    20 1   
    18     8     9 ar  
    19     8    21 1   
    20     9    10 1   
    21     9    11 ar  
    22    10    22 1   
    23    10    23 1   
    24    10    24 1   
    25    11    25 1   
@<TRIPOS>SUBSTRUCTURE
     1 AS3         1 TEMP              0 ****  ****    0 ROOT
