@<TRIPOS>MOLECULE
AS4
   54    57     1     0     0
SMALL
bcc


@<TRIPOS>ATOM
      1 C1          0.0410   -0.2490   -0.0340 c3        1 AS4     -0.045700
      2 C5         -1.7160   -1.2830    1.3650 c3        1 AS4     -0.105400
      3 C6          0.2700   -2.6620    0.8380 c         1 AS4      0.595900
      4 C7         -2.8700   -1.2060   -2.4030 c3        1 AS4     -0.007800
      5 C8         -2.4530   -0.2750   -3.5180 c2        1 AS4     -0.029400
      6 C9         -3.3280    0.3300   -4.3380 ce        1 AS4     -0.266200
      7 C10        -4.7800    0.1300   -4.2580 c         1 AS4      0.569300
      8 C15        -2.5820   -2.6330   -2.8600 c3        1 AS4     -0.081100
      9 C16         1.8980   -0.1100    1.5120 c3        1 AS4     -0.076400
     10 C17         0.6500   -0.6420    2.2400 c3        1 AS4     -0.154700
     11 C18         0.9700   -1.6030    3.3490 c         1 AS4      0.531100
     12 C19         0.0140   -1.5810    4.5220 c3        1 AS4      0.030400
     13 C20         1.5440   -0.0110    0.0250 c3        1 AS4     -0.077400
     14 C          -0.2190   -1.2490    1.1150 c3        1 AS4     -0.156000
     15 C2         -0.5870   -0.7220   -1.3320 c3        1 AS4     -0.056700
     16 C3         -2.1030   -0.8260   -1.1170 c3        1 AS4     -0.038700
     17 C4         -2.4530   -1.7170    0.0890 c3        1 AS4      0.144100
     18 O          -2.1330   -3.0680   -0.2170 oh        1 AS4     -0.591800
     19 O1          1.0320   -2.9810   -0.0700 o         1 AS4     -0.506100
     20 O2         -5.5840    0.8140   -4.9020 o         1 AS4     -0.535100
     21 C11        -5.2200   -0.9940   -3.3640 c3        1 AS4     -0.181400
     22 C12        -4.3720   -1.0600   -2.1140 c3        1 AS4     -0.070400
     23 C13        -0.9860   -0.1130   -3.7240 c3        1 AS4     -0.055200
     24 C14        -0.2750    0.2640   -2.4440 c3        1 AS4     -0.069400
     25 O3          1.9520   -2.3510    3.3600 o         1 AS4     -0.516100
     26 O4          0.0490   -2.7730    5.2740 oh        1 AS4     -0.588800
     27 H1         -0.4620    0.7240    0.2470 hc        1 AS4      0.043700
     28 H51        -2.0750   -0.2670    1.6710 hc        1 AS4      0.052700
     29 H52        -1.9610   -1.9980    2.1930 hc        1 AS4      0.052700
     30 H6         -0.1240   -3.4130    1.5610 h4        1 AS4     -0.004800
     31 H9         -2.9900    1.0110   -5.1380 ha        1 AS4      0.149000
     32 H151       -3.1010   -3.3680   -2.1970 hc        1 AS4      0.046700
     33 H152       -2.9440   -2.7810   -3.9060 hc        1 AS4      0.046700
     34 H153       -1.4870   -2.8450   -2.8220 hc        1 AS4      0.046700
     35 H161        2.1810    0.8890    1.9240 hc        1 AS4      0.061200
     36 H162        2.7610   -0.8060    1.6630 hc        1 AS4      0.061200
     37 H17         0.0850    0.2230    2.6860 hc        1 AS4      0.068700
     38 H191        0.2740   -0.7030    5.1770 h1        1 AS4      0.067700
     39 H192       -1.0490   -1.4830    4.1710 h1        1 AS4      0.067700
     40 H201        1.8130    0.9880   -0.3950 hc        1 AS4      0.061200
     41 H202        2.0850   -0.7980   -0.5610 hc        1 AS4      0.061200
     42 H2         -0.1780   -1.7360   -1.6030 hc        1 AS4      0.092700
     43 H3         -2.4630    0.2080   -0.8290 hc        1 AS4      0.050700
     44 H4         -3.5620   -1.6370    0.2840 h1        1 AS4      0.037700
     45 HO         -2.4320   -3.6000    0.5310 ho        1 AS4      0.399000
     46 H111       -5.1300   -1.9520   -3.9440 hc        1 AS4      0.072700
     47 H112       -6.2990   -0.8640   -3.0870 hc        1 AS4      0.072700
     48 H121       -4.5460   -0.1300   -1.5100 hc        1 AS4      0.046700
     49 H122       -4.7100   -1.9340   -1.4960 hc        1 AS4      0.046700
     50 H131       -0.5790   -1.0910   -4.1060 hc        1 AS4      0.059700
     51 H132       -0.7800    0.6650   -4.5070 hc        1 AS4      0.059700
     52 H141        0.8330    0.2810   -2.6210 hc        1 AS4      0.047700
     53 H142       -0.5820    1.2980   -2.1320 hc        1 AS4      0.047700
     54 HO4         0.9770   -3.0340    5.3690 ho        1 AS4      0.422000
@<TRIPOS>BOND
     1    1   13 1   
     2    1   14 1   
     3    1   15 1   
     4    1   27 1   
     5    2   14 1   
     6    2   17 1   
     7    2   28 1   
     8    2   29 1   
     9    3   14 1   
    10    3   19 2   
    11    3   30 1   
    12    4    5 1   
    13    4    8 1   
    14    4   16 1   
    15    4   22 1   
    16    5    6 2   
    17    5   23 1   
    18    6    7 1   
    19    6   31 1   
    20    7   20 2   
    21    7   21 1   
    22    8   32 1   
    23    8   33 1   
    24    8   34 1   
    25    9   10 1   
    26    9   13 1   
    27    9   35 1   
    28    9   36 1   
    29   10   11 1   
    30   10   14 1   
    31   10   37 1   
    32   11   12 1   
    33   11   25 2   
    34   12   26 1   
    35   12   38 1   
    36   12   39 1   
    37   13   40 1   
    38   13   41 1   
    39   15   16 1   
    40   15   24 1   
    41   15   42 1   
    42   16   17 1   
    43   16   43 1   
    44   17   18 1   
    45   17   44 1   
    46   18   45 1   
    47   21   22 1   
    48   21   46 1   
    49   21   47 1   
    50   22   48 1   
    51   22   49 1   
    52   23   24 1   
    53   23   50 1   
    54   23   51 1   
    55   24   52 1   
    56   24   53 1   
    57   26   54 1   
@<TRIPOS>SUBSTRUCTURE
     1 AS4         1 TEMP              0 ****  ****    0 ROOT
