@<TRIPOS>MOLECULE
molecule
   54    57     1     0     0
SMALL
bcc


@<TRIPOS>ATOM
      1 C1           0.0000     0.0000     0.0000 c3         1 AS4      -0.046700
      2 C5          -1.8060    -0.8640     1.4730 c3         1 AS4      -0.087400
      3 C6          -0.0370    -2.3970     0.6690 c          1 AS4       0.606900
      4 C7          -2.8750    -1.1390    -2.3000 c3         1 AS4      -0.018800
      5 C8          -2.4080    -0.3970    -3.5150 c2         1 AS4      -0.038400
      6 C9          -3.2350     0.0540    -4.4620 ce         1 AS4      -0.267200
      7 C10         -4.6820    -0.1440    -4.3320 c          1 AS4       0.570300
      8 C15         -2.4520    -2.6020    -2.4470 c3         1 AS4      -0.074100
      9 C16          1.8800     0.0000     1.5140 c3         1 AS4      -0.075400
     10 C17          0.6540    -0.6040     2.2430 c3         1 AS4      -0.150700
     11 C18          1.0660    -1.8090     3.0470 c          1 AS4       0.550100
     12 C19          0.2440    -2.2400     4.2350 c3         1 AS4       0.042400
     13 C20          1.5330     0.0000     0.0000 c3         1 AS4      -0.080400
     14 C           -0.3320    -0.9970     1.1420 c3         1 AS4      -0.177000
     15 C2          -0.6600    -0.5260    -1.2620 c3         1 AS4      -0.074700
     16 C3          -2.1800    -0.5690    -1.0590 c3         1 AS4      -0.046700
     17 C4          -2.5930    -1.3090     0.2300 c3         1 AS4       0.145100
     18 O           -2.3150    -2.6860    -0.0290 oh         1 AS4      -0.605800
     19 O1           0.7430    -2.5770    -0.2360 o          1 AS4      -0.519100
     20 O2          -5.4780     0.5510    -4.9270 o          1 AS4      -0.526100
     21 C11         -5.1330    -1.2640    -3.4140 c3         1 AS4      -0.178400
     22 C12         -4.3780    -1.1040    -2.0930 c3         1 AS4      -0.065400
     23 C13         -0.9180    -0.1990    -3.7230 c3         1 AS4      -0.049200
     24 C14         -0.3160     0.3860    -2.4440 c3         1 AS4      -0.069400
     25 O3           2.0550    -2.4310     2.7400 o          1 AS4      -0.472100
     26 O4           0.8330    -3.3990     4.8270 oh         1 AS4      -0.581800
     27 H1          -0.3770     0.9860     0.2410 hc         1 AS4       0.052700
     28 H51         -2.0540    -1.5030     2.3130 hc         1 AS4       0.051700
     29 H52         -2.0390     0.1680     1.7060 hc         1 AS4       0.051700
     30 H6          -0.4880    -3.2440     1.1710 h4         1 AS4       0.005200
     31 H9          -2.8350     0.5650    -5.3290 ha         1 AS4       0.151000
     32 H151        -3.1530    -3.2360    -1.9180 hc         1 AS4       0.044367
     33 H152        -1.4600    -2.7350    -2.0310 hc         1 AS4       0.044367
     34 H153        -2.4420    -2.8720    -3.4970 hc         1 AS4       0.044367
     35 H161         2.0520     1.0140     1.8540 hc         1 AS4       0.060700
     36 H162         2.7560    -0.6120     1.6930 hc         1 AS4       0.060700
     37 H17          0.2060     0.1420     2.8890 hc         1 AS4       0.065700
     38 H191        -0.7640    -2.4720     3.9120 h1         1 AS4       0.040200
     39 H192         0.2140    -1.4380     4.9630 h1         1 AS4       0.040200
     40 H201         1.9140    -0.8930    -0.4790 hc         1 AS4       0.067200
     41 H202         1.9140     0.8940    -0.4790 hc         1 AS4       0.067200
     42 H2          -0.2980    -1.5270    -1.4660 hc         1 AS4       0.099700
     43 H3          -2.5130     0.4570    -0.9530 hc         1 AS4       0.050700
     44 H4          -3.6530    -1.1720     0.4030 h1         1 AS4       0.041700
     45 HO          -2.8900    -3.2250     0.4880 ho         1 AS4       0.398000
     46 H111        -4.8940    -2.2220    -3.8590 hc         1 AS4       0.070200
     47 H112        -6.1990    -1.1880    -3.2380 hc         1 AS4       0.070200
     48 H121        -4.6610    -1.9100    -1.4270 hc         1 AS4       0.045700
     49 H122        -4.6510    -0.1560    -1.6450 hc         1 AS4       0.045700
     50 H131        -0.7550     0.4870    -4.5460 hc         1 AS4       0.059200
     51 H132        -0.4520    -1.1520    -3.9390 hc         1 AS4       0.059200
     52 H141         0.7600     0.4510    -2.5480 hc         1 AS4       0.048200
     53 H142        -0.7290     1.3730    -2.2690 hc         1 AS4       0.048200
     54 HO4          0.4340    -3.5620     5.6650 ho         1 AS4       0.405000
@<TRIPOS>BOND
     1     1    13 1
     2     1    14 1
     3     1    15 1
     4     1    27 1
     5     2    14 1
     6     2    17 1
     7     2    28 1
     8     2    29 1
     9     3    14 1
    10     3    19 2
    11     3    30 1
    12     4     5 1
    13     4     8 1
    14     4    16 1
    15     4    22 1
    16     5     6 2
    17     5    23 1
    18     6     7 1
    19     6    31 1
    20     7    20 2
    21     7    21 1
    22     8    32 1
    23     8    33 1
    24     8    34 1
    25     9    10 1
    26     9    13 1
    27     9    35 1
    28     9    36 1
    29    10    11 1
    30    10    14 1
    31    10    37 1
    32    11    12 1
    33    11    25 2
    34    12    26 1
    35    12    38 1
    36    12    39 1
    37    13    40 1
    38    13    41 1
    39    15    16 1
    40    15    24 1
    41    15    42 1
    42    16    17 1
    43    16    43 1
    44    17    18 1
    45    17    44 1
    46    18    45 1
    47    21    22 1
    48    21    46 1
    49    21    47 1
    50    22    48 1
    51    22    49 1
    52    23    24 1
    53    23    50 1
    54    23    51 1
    55    24    52 1
    56    24    53 1
    57    26    54 1
@<TRIPOS>SUBSTRUCTURE
     1 AS4         1 TEMP              0 ****  ****    0 ROOT
