@<TRIPOS>MOLECULE
molecule
   56    57     1     0     0
SMALL
bcc


@<TRIPOS>ATOM
      1 O7B          0.0000     0.0000     0.0000 o          1 AS5      -0.614100
      2 C7B          1.2130     0.0000     0.0000 c          1 AS5       0.658100
      3 C8B          1.9660     0.0000     1.3050 c3         1 AS5      -0.169100
      4 N2B          1.8870    -0.0060    -1.1670 ns         1 AS5      -0.575900
      5 C2B          1.1550    -0.0130    -2.4360 c3         1 AS5       0.107700
      6 C3B          2.0320     0.5910    -3.5360 c3         1 AS5       0.126100
      7 O3B          2.3110     1.9580    -3.2290 oh         1 AS5      -0.588800
      8 C4B          1.2860     0.5070    -4.8710 c3         1 AS5       0.100100
      9 C5B          0.9230    -0.9540    -5.1540 c3         1 AS5       0.138100
     10 C6B          0.1260    -1.0380    -6.4570 c3         1 AS5       0.151400
     11 O6B         -0.1120    -2.4100    -6.7810 oh         1 AS5      -0.594800
     12 O5B          0.1340    -1.4630    -4.0780 os         1 AS5      -0.401600
     13 C1B          0.7970    -1.4540    -2.8130 c3         1 AS5       0.312900
     14 O4A          1.9910    -2.2350    -2.8940 os         1 AS5      -0.446600
     15 C4A          1.7590    -3.6440    -2.9680 c3         1 AS5       0.118100
     16 C3A          2.7520    -4.2730    -3.9500 c3         1 AS5       0.133100
     17 O3A          2.5270    -3.7490    -5.2600 oh         1 AS5      -0.583800
     18 C2A          2.5460    -5.7910    -3.9630 c3         1 AS5       0.056700
     19 N2A          1.1990    -6.0990    -4.4500 ns         1 AS5      -0.565900
     20 C7A          0.9450    -7.2920    -5.0210 c          1 AS5       0.661100
     21 O7A          1.8320    -8.1130    -5.1320 o          1 AS5      -0.627100
     22 C8A         -0.4410    -7.6090    -5.5230 c3         1 AS5      -0.168100
     23 C5A          1.9550    -4.2690    -1.5840 c3         1 AS5       0.117100
     24 C6A          0.9260    -3.6870    -0.6120 c3         1 AS5       0.146400
     25 O6A          1.1750    -4.1900     0.7020 oh         1 AS5      -0.601800
     26 O5A          1.7790    -5.6840    -1.6730 os         1 AS5      -0.402600
     27 C1A          2.7110    -6.3330    -2.5410 c3         1 AS5       0.119400
     28 O4B          0.0930     1.2910    -4.8020 oh         1 AS5      -0.579800
     29 H8B1         2.8760    -0.5780     1.1970 hc         1 AS5       0.062367
     30 H8B2         2.2160     1.0180     1.5780 hc         1 AS5       0.062367
     31 H8B3         1.3490    -0.4400     2.0790 hc         1 AS5       0.062367
     32 H2B          2.8870     0.0020    -1.1670 hn         1 AS5       0.317500
     33 HA           0.2470     0.5700    -2.3390 h1         1 AS5       0.130700
     34 H1B          0.1380    -1.8690    -2.0590 h2         1 AS5       0.097700
     35 H3B          3.2150     2.1450    -3.4180 ho         1 AS5       0.399000
     36 H4B          1.9240     0.8790    -5.6640 h1         1 AS5       0.038700
     37 H5B          1.8310    -1.5390    -5.2420 h1         1 AS5       0.081700
     38 HB           0.1340     1.9830    -5.4420 ho         1 AS5       0.403000
     39 H6B1         0.6880    -0.5700    -7.2560 h1         1 AS5       0.031700
     40 H6B2        -0.8210    -0.5270    -6.3350 h1         1 AS5       0.031700
     41 H6B         -0.5590    -2.4640    -7.6090 ho         1 AS5       0.399000
     42 H4A          0.7480    -3.8310    -3.3080 h1         1 AS5       0.074700
     43 H3A          3.7630    -4.0500    -3.6330 h1         1 AS5       0.048700
     44 H5A          2.9550    -4.0520    -1.2300 h1         1 AS5       0.057700
     45 HC           3.3070    -3.8580    -5.7800 ho         1 AS5       0.403000
     46 H2A          3.2830    -6.2490    -4.6100 h1         1 AS5       0.086700
     47 HD           0.4670    -5.4210    -4.3600 hn         1 AS5       0.329500
     48 H1A1         2.5220    -7.4000    -2.5380 h1         1 AS5       0.064700
     49 H1A2         3.7200    -6.1390    -2.1970 h1         1 AS5       0.064700
     50 H8A1        -1.1680    -7.3450    -4.7650 hc         1 AS5       0.061367
     51 H8A2        -0.6370    -7.0410    -6.4240 hc         1 AS5       0.061367
     52 H8A3        -0.5130    -8.6680    -5.7400 hc         1 AS5       0.061367
     53 H6A1        -0.0700    -3.9750    -0.9260 h1         1 AS5       0.042200
     54 H6A2         1.0040    -2.6070    -0.6070 h1         1 AS5       0.042200
     55 H6A          0.3570    -4.2980     1.1570 ho         1 AS5       0.408000
     56 H3B1         2.9580     0.0340    -3.6050 h1         1 AS5       0.049700
@<TRIPOS>BOND
     1     1     2 2
     2     2     3 1
     3     2     4 1
     4     4     5 1
     5     5     6 1
     6     5    13 1
     7     6     7 1
     8     6     8 1
     9     8     9 1
    10     8    28 1
    11     9    10 1
    12     9    12 1
    13    10    11 1
    14    12    13 1
    15    13    14 1
    16    14    15 1
    17    15    16 1
    18    15    23 1
    19    16    17 1
    20    16    18 1
    21    18    19 1
    22    18    27 1
    23    19    20 1
    24    20    21 2
    25    20    22 1
    26    23    24 1
    27    23    26 1
    28    24    25 1
    29    26    27 1
    30     3    29 1
    31     3    30 1
    32     3    31 1
    33     4    32 1
    34     5    33 1
    35    13    34 1
    36     7    35 1
    37     8    36 1
    38     9    37 1
    39    28    38 1
    40    10    39 1
    41    10    40 1
    42    11    41 1
    43    15    42 1
    44    16    43 1
    45    23    44 1
    46    17    45 1
    47    18    46 1
    48    19    47 1
    49    27    48 1
    50    27    49 1
    51    22    50 1
    52    22    51 1
    53    22    52 1
    54    24    53 1
    55    24    54 1
    56    25    55 1
    57     6    56 1
@<TRIPOS>SUBSTRUCTURE
     1 AS5         1 TEMP              0 ****  ****    0 ROOT
