@<TRIPOS>MOLECULE
molecule
   69    72     1     0     0
SMALL
bcc


@<TRIPOS>ATOM
      1 C1           0.0000     0.0000     0.0000 c3         1 AS6      -0.111600
      2 C2           1.5300     0.0000     0.0000 c3         1 AS6       0.243500
      3 C3           2.0400     0.0000     1.4430 c3         1 AS6      -0.111600
      4 N1           2.0180    -1.1960    -0.6900 nh         1 AS6      -0.697700
      5 C4           2.9090    -1.0730    -1.7460 ca         1 AS6       0.770200
      6 C5           3.5220     0.1530    -2.0150 ca         1 AS6      -0.494600
      7 C6           4.4030     0.2300    -3.0770 ca         1 AS6       0.521200
      8 N2           4.6380    -0.8540    -3.8030 nb         1 AS6      -0.835000
      9 C7           4.0410    -2.0030    -3.5250 ca         1 AS6       0.970900
     10 N3           4.3130    -3.1130    -4.3090 nu         1 AS6      -0.754300
     11 C8           5.2880    -3.0400    -5.3080 ca         1 AS6       0.171600
     12 C9           5.1360    -3.7670    -6.4810 ca         1 AS6      -0.172000
     13 C10          6.1050    -3.6920    -7.4700 ca         1 AS6       0.100600
     14 C11          7.2260    -2.8900    -7.2840 ca         1 AS6      -0.078000
     15 C12          7.3740    -2.1690    -6.1150 ca         1 AS6      -0.259500
     16 C13          6.4070    -2.2370    -5.1310 ca         1 AS6      -0.054000
     17 S1           8.7960    -1.1540    -5.8830 sy         1 AS6       1.193300
     18 O1           8.9500    -1.0830    -4.4720 o          1 AS6      -0.618800
     19 O2           9.7920    -1.7550    -6.7000 o          1 AS6      -0.618800
     20 C14          8.3130     0.4620    -6.5520 c3         1 AS6      -0.226300
     21 N4           5.9570    -4.4220    -8.6520 nh         1 AS6      -0.591000
     22 C15          4.7080    -5.1980    -8.6380 c3         1 AS6       0.123800
     23 C16          4.6150    -6.0260    -9.9210 c3         1 AS6       0.136900
     24 O3           4.6980    -5.1550   -11.0520 os         1 AS6      -0.423600
     25 C17          5.9020    -4.3850   -11.0980 c3         1 AS6       0.136900
     26 C18          6.0090    -3.5390    -9.8260 c3         1 AS6       0.123800
     27 N5           3.1940    -2.1200    -2.5130 nb         1 AS6      -0.838000
     28 C19          1.5860    -2.4630    -0.2840 ca         1 AS6       0.148600
     29 C20          0.4500    -3.0250    -0.8520 ca         1 AS6      -0.092000
     30 C21          0.0260    -4.2760    -0.4490 ca         1 AS6      -0.093300
     31 C22         -1.2060    -4.8870    -1.0630 c3         1 AS6       0.190700
     32 O4          -0.8370    -5.6470    -2.2170 oh         1 AS6      -0.602800
     33 C23          0.7320    -4.9700     0.5180 ca         1 AS6      -0.101000
     34 C24          1.8640    -4.4110     1.0850 ca         1 AS6      -0.131000
     35 C25          2.2950    -3.1630     0.6820 ca         1 AS6      -0.066300
     36 C26          3.5330    -2.5590     1.2960 c3         1 AS6      -0.052800
     37 H11C        -0.3610     0.9820     0.2820 hc         1 AS6       0.045867
     38 H12C        -0.3610    -0.7350     0.7090 hc         1 AS6       0.045867
     39 H13C        -0.3610    -0.2460    -0.9910 hc         1 AS6       0.045867
     40 H2           1.8910     0.8840    -0.5110 h1         1 AS6       0.069700
     41 H31C         3.1220    -0.0450     1.4430 hc         1 AS6       0.045867
     42 H32C         1.7160     0.9060     1.9400 hc         1 AS6       0.045867
     43 H33C         1.6420    -0.8610     1.9660 hc         1 AS6       0.045867
     44 H5           3.3120     1.0230    -1.4050 ha         1 AS6       0.145000
     45 H6           4.8960     1.1650    -3.3130 h4         1 AS6       0.026100
     46 H3           3.8330    -3.9740    -4.1400 hn         1 AS6       0.471800
     47 H9           4.2610    -4.3910    -6.6230 ha         1 AS6       0.143000
     48 H13          6.5270    -1.6700    -4.2150 ha         1 AS6       0.180000
     49 H11          7.9850    -2.8340    -8.0550 ha         1 AS6       0.155000
     50 H141         7.9510     0.3390    -7.5660 h1         1 AS6       0.097033
     51 H142         9.1710     1.1230    -6.5530 h1         1 AS6       0.097033
     52 H143         7.5290     0.8870    -5.9380 h1         1 AS6       0.097033
     53 H151         4.7040    -5.8590    -7.7810 h1         1 AS6       0.051950
     54 H152         3.8640    -4.5210    -8.5840 h1         1 AS6       0.051950
     55 H181         6.9480    -2.9990    -9.8300 h1         1 AS6       0.051950
     56 H182         5.1830    -2.8400    -9.7880 h1         1 AS6       0.051950
     57 H161         5.4320    -6.7370    -9.9510 h1         1 AS6       0.056950
     58 H162         3.6690    -6.5540    -9.9410 h1         1 AS6       0.056950
     59 H171         5.8820    -3.7340   -11.9630 h1         1 AS6       0.056950
     60 H172         6.7540    -5.0520   -11.1600 h1         1 AS6       0.056950
     61 H20         -0.0640    -2.5130    -1.6570 ha         1 AS6       0.142000
     62 H221        -1.8930    -4.1010    -1.3530 h1         1 AS6       0.024700
     63 H222        -1.6850    -5.5370    -0.3410 h1         1 AS6       0.024700
     64 H23          0.3970    -5.9500     0.8340 ha         1 AS6       0.133000
     65 H4          -1.6040    -6.0520    -2.5850 ho         1 AS6       0.400000
     66 H24          2.4160    -4.9570     1.8400 ha         1 AS6       0.135000
     67 H261         3.3040    -2.2030     2.2930 hc         1 AS6       0.047700
     68 H262         4.3120    -3.3100     1.3500 hc         1 AS6       0.047700
     69 H263         3.8720    -1.7310     0.6850 hc         1 AS6       0.047700
@<TRIPOS>BOND
     1     1     2 1
     2     2     3 1
     3     2     4 1
     4     4     5 1
     5     4    28 1
     6     5     6 ar
     7     5    27 ar
     8     6     7 ar
     9     7     8 ar
    10     8     9 ar
    11     9    10 1
    12     9    27 ar
    13    10    11 1
    14    11    12 ar
    15    11    16 ar
    16    12    13 ar
    17    13    14 ar
    18    13    21 1
    19    14    15 ar
    20    15    16 ar
    21    15    17 1
    22    17    18 2
    23    17    19 2
    24    17    20 1
    25    21    22 1
    26    21    26 1
    27    22    23 1
    28    23    24 1
    29    24    25 1
    30    25    26 1
    31    28    29 ar
    32    28    35 ar
    33    29    30 ar
    34    30    31 1
    35    30    33 ar
    36    31    32 1
    37    33    34 ar
    38    34    35 ar
    39    35    36 1
    40     1    37 1
    41     1    38 1
    42     1    39 1
    43     2    40 1
    44     3    41 1
    45     3    42 1
    46     3    43 1
    47     6    44 1
    48     7    45 1
    49    10    46 1
    50    12    47 1
    51    16    48 1
    52    14    49 1
    53    20    50 1
    54    20    51 1
    55    20    52 1
    56    22    53 1
    57    22    54 1
    58    26    55 1
    59    26    56 1
    60    23    57 1
    61    23    58 1
    62    25    59 1
    63    25    60 1
    64    29    61 1
    65    31    62 1
    66    31    63 1
    67    33    64 1
    68    32    65 1
    69    34    66 1
    70    36    67 1
    71    36    68 1
    72    36    69 1
@<TRIPOS>SUBSTRUCTURE
     1 AS6         1 TEMP              0 ****  ****    0 ROOT
