@<TRIPOS>MOLECULE
AS6
   69    72     1     0     0
SMALL
bcc


@<TRIPOS>ATOM
      1 C1           0.0000     0.0000     0.0000 c3         1 AS6      -0.026600
      2 C2           1.5300     0.0000     0.0000 c3         1 AS6       0.129500
      3 C3           2.0400     0.0000     1.4430 c3         1 AS6      -0.026600
      4 N1           2.0180    -1.1960    -0.6900 nh         1 AS6      -0.296700
      5 C4           2.9090    -1.0730    -1.7460 ca         1 AS6       0.593200
      6 C5           3.5220     0.1530    -2.0150 ca         1 AS6      -0.494600
      7 C6           4.4030     0.2300    -3.0770 ca         1 AS6       0.527200
      8 N2           4.6380    -0.8540    -3.8030 nb         1 AS6      -0.745000
      9 C7           4.0410    -2.0030    -3.5250 ca         1 AS6       0.740900
     10 N3           4.3130    -3.1130    -4.3090 nu         1 AS6      -0.288300
     11 C8           5.2880    -3.0400    -5.3080 ca         1 AS6       0.007600
     12 C9           5.1360    -3.7670    -6.4810 ca         1 AS6      -0.159000
     13 C10          6.1050    -3.6920    -7.4700 ca         1 AS6       0.011600
     14 C11          7.2260    -2.8900    -7.2840 ca         1 AS6      -0.050000
     15 C12          7.3740    -2.1690    -6.1150 ca         1 AS6      -0.111500
     16 C13          6.4070    -2.2370    -5.1310 ca         1 AS6      -0.033000
     17 S1           8.7960    -1.1540    -5.8830 sy         1 AS6       0.871300
     18 O1           8.9500    -1.0830    -4.4720 o          1 AS6      -0.589800
     19 O2           9.7920    -1.7550    -6.7000 o          1 AS6      -0.589800
     20 C14          8.3130     0.4620    -6.5520 c3         1 AS6       0.028700
     21 N4           5.9570    -4.4220    -8.6520 nh         1 AS6      -0.354000
     22 C15          4.7080    -5.1980    -8.6380 c3         1 AS6       0.093800
     23 C16          4.6150    -6.0260    -9.9210 c3         1 AS6       0.213900
     24 O3           4.6980    -5.1550   -11.0520 os         1 AS6      -0.411600
     25 C17          5.9020    -4.3850   -11.0980 c3         1 AS6       0.213900
     26 C18          6.0090    -3.5390    -9.8260 c3         1 AS6       0.093800
     27 N5           3.1940    -2.1200    -2.5130 nb         1 AS6      -0.738000
     28 C19          1.5860    -2.4630    -0.2840 ca         1 AS6       0.007600
     29 C20          0.4500    -3.0250    -0.8520 ca         1 AS6      -0.059000
     30 C21          0.0260    -4.2760    -0.4490 ca         1 AS6      -0.114300
     31 C22         -1.2060    -4.8870    -1.0630 c3         1 AS6       0.285700
     32 O4          -0.8370    -5.6470    -2.2170 oh         1 AS6      -0.586800
     33 C23          0.7320    -4.9700     0.5180 ca         1 AS6      -0.063000
     34 C24          1.8640    -4.4110     1.0850 ca         1 AS6      -0.106000
     35 C25          2.2950    -3.1630     0.6820 ca         1 AS6      -0.064300
     36 C26          3.5330    -2.5590     1.2960 c3         1 AS6       0.038200
     37 H11C        -0.3610     0.9820     0.2820 hc         1 AS6       0.015867
     38 H12C        -0.3610    -0.7350     0.7090 hc         1 AS6       0.015867
     39 H13C        -0.3610    -0.2460    -0.9910 hc         1 AS6       0.015867
     40 H2           1.8910     0.8840    -0.5110 h1         1 AS6       0.050700
     41 H31C         3.1220    -0.0450     1.4430 hc         1 AS6       0.015867
     42 H32C         1.7160     0.9060     1.9400 hc         1 AS6       0.015867
     43 H33C         1.6420    -0.8610     1.9660 hc         1 AS6       0.015867
     44 H5           3.3120     1.0230    -1.4050 ha         1 AS6       0.136000
     45 H6           4.8960     1.1650    -3.3130 h4         1 AS6      -0.023900
     46 H3           3.8330    -3.9740    -4.1400 hn         1 AS6       0.296800
     47 H9           4.2610    -4.3910    -6.6230 ha         1 AS6       0.126000
     48 H13          6.5270    -1.6700    -4.2150 ha         1 AS6       0.158000
     49 H11          7.9850    -2.8340    -8.0550 ha         1 AS6       0.133000
     50 H141         7.9510     0.3390    -7.5660 h1         1 AS6       0.059033
     51 H142         9.1710     1.1230    -6.5530 h1         1 AS6       0.059033
     52 H143         7.5290     0.8870    -5.9380 h1         1 AS6       0.059033
     53 H151         4.7040    -5.8590    -7.7810 h1         1 AS6       0.025950
     54 H152         3.8640    -4.5210    -8.5840 h1         1 AS6       0.025950
     55 H181         6.9480    -2.9990    -9.8300 h1         1 AS6       0.025950
     56 H182         5.1830    -2.8400    -9.7880 h1         1 AS6       0.025950
     57 H161         5.4320    -6.7370    -9.9510 h1         1 AS6       0.014700
     58 H162         3.6690    -6.5540    -9.9410 h1         1 AS6       0.014700
     59 H171         5.8820    -3.7340   -11.9630 h1         1 AS6       0.014700
     60 H172         6.7540    -5.0520   -11.1600 h1         1 AS6       0.014700
     61 H20         -0.0640    -2.5130    -1.6570 ha         1 AS6       0.115000
     62 H221        -1.8930    -4.1010    -1.3530 h1         1 AS6      -0.014300
     63 H222        -1.6850    -5.5370    -0.3410 h1         1 AS6      -0.014300
     64 H23          0.3970    -5.9500     0.8340 ha         1 AS6       0.105000
     65 H4          -1.6040    -6.0520    -2.5850 ho         1 AS6       0.387000
     66 H24          2.4160    -4.9570     1.8400 ha         1 AS6       0.108000
     67 H261         3.3040    -2.2030     2.2930 hc         1 AS6       0.017033
     68 H262         4.3120    -3.3100     1.3500 hc         1 AS6       0.017033
     69 H263         3.8720    -1.7310     0.6850 hc         1 AS6       0.017033
@<TRIPOS>BOND
     1     1     2 1   
     2     1    37 1   
     3     1    38 1   
     4     1    39 1   
     5     2     3 1   
     6     2     4 1   
     7     2    40 1   
     8     3    41 1   
     9     3    42 1   
    10     3    43 1   
    11     4     5 1   
    12     4    28 1   
    13     5     6 ar  
    14     5    27 ar  
    15     6     7 ar  
    16     6    44 1   
    17     7     8 ar  
    18     7    45 1   
    19     8     9 ar  
    20     9    10 1   
    21     9    27 ar  
    22    10    11 1   
    23    10    46 1   
    24    11    12 ar  
    25    11    16 ar  
    26    12    13 ar  
    27    12    47 1   
    28    13    14 ar  
    29    13    21 1   
    30    14    15 ar  
    31    14    49 1   
    32    15    16 ar  
    33    15    17 1   
    34    16    48 1   
    35    17    18 2   
    36    17    19 2   
    37    17    20 1   
    38    20    50 1   
    39    20    51 1   
    40    20    52 1   
    41    21    22 1   
    42    21    26 1   
    43    22    23 1   
    44    22    53 1   
    45    22    54 1   
    46    23    24 1   
    47    23    57 1   
    48    23    58 1   
    49    24    25 1   
    50    25    26 1   
    51    25    59 1   
    52    25    60 1   
    53    26    55 1   
    54    26    56 1   
    55    28    29 ar  
    56    28    35 ar  
    57    29    30 ar  
    58    29    61 1   
    59    30    31 1   
    60    30    33 ar  
    61    31    32 1   
    62    31    62 1   
    63    31    63 1   
    64    32    65 1   
    65    33    34 ar  
    66    33    64 1   
    67    34    35 ar  
    68    34    66 1   
    69    35    36 1   
    70    36    67 1   
    71    36    68 1   
    72    36    69 1   
@<TRIPOS>SUBSTRUCTURE
     1 AS6         1 TEMP              0 ****  ****    0 ROOT
