@<TRIPOS>MOLECULE
molecule
   11    10     1     0     0
SMALL
bcc


@<TRIPOS>ATOM
      1 O1S          0.0000     0.0000     0.0000 o          1 AS8      -0.702533
      2 O2S          1.8500     0.0000     1.4610 o          1 AS8      -0.702533
      3 O3S          2.1990    -0.9980    -0.6470 o          1 AS8      -0.702533
      4 C1M          3.6800     2.8510    -1.4810 c3         1 AS8      -0.152100
      5 C1           3.1790     1.5570    -0.8900 c          1 AS8       0.673100
      6 O2           3.9550     0.6620    -0.6540 o          1 AS8      -0.503000
      7 O1           1.8730     1.4010    -0.6250 os         1 AS8      -0.581800
      8 S            1.4210     0.0000     0.0000 s6         1 AS8       1.517300
      9 H1M1         3.4260     3.6710    -0.8200 hc         1 AS8       0.051367
     10 H1M2         4.7550     2.8020    -1.5990 hc         1 AS8       0.051367
     11 H1M3         3.2170     3.0090    -2.4470 hc         1 AS8       0.051367
@<TRIPOS>BOND
     1     1     8 1
     2     2     8 1
     3     3     8 1
     4     4     5 1
     5     5     6 2
     6     5     7 1
     7     7     8 1
     8     4     9 1
     9     4    10 1
    10     4    11 1
@<TRIPOS>SUBSTRUCTURE
     1 AS8         1 TEMP              0 ****  ****    0 ROOT
