@<TRIPOS>MOLECULE
AS8
   11    10     1     0     0
SMALL
bcc


@<TRIPOS>ATOM
      1 O1S         0.0310    0.3180   -0.0920 o         1 AS8     -0.735200
      2 O2S         1.7780   -0.1080    1.4190 o         1 AS8     -0.735200
      3 O3S         1.7240   -1.1980   -0.6840 o         1 AS8     -0.735200
      4 C1M         3.6500    2.8750   -1.5110 c3        1 AS8     -0.161100
      5 C1          3.4390    1.5580   -0.8220 c         1 AS8      0.714100
      6 O2          4.3480    0.8010   -0.4530 o         1 AS8     -0.608000
      7 O1          2.1740    1.2350   -0.6220 os        1 AS8     -0.605800
      8 S           1.3270   -0.1370    0.1110 s6        1 AS8      1.724300
      9 H1M1        3.1870    3.6890   -0.9040 hc        1 AS8      0.047367
     10 H1M2        4.7410    3.0700   -1.6320 hc        1 AS8      0.047367
     11 H1M3        3.1580    2.8520   -2.5120 hc        1 AS8      0.047367
@<TRIPOS>BOND
     1    1    8 1   
     2    2    8 1   
     3    3    8 1   
     4    4    5 1   
     5    4    9 1   
     6    4   10 1   
     7    4   11 1   
     8    5    6 2   
     9    5    7 1   
    10    7    8 1   
@<TRIPOS>SUBSTRUCTURE
     1 AS8         1 TEMP              0 ****  ****    0 ROOT
