@<TRIPOS>MOLECULE
molecule
   20    20     1     0     0
SMALL
bcc


@<TRIPOS>ATOM
      1 C1           0.0000     0.0000     0.0000 c          1 ASC       0.716800
      2 C2           1.4570     0.0000     0.0000 ce         1 ASC      -0.044100
      3 C3           1.8940     0.0000     1.2750 c2         1 ASC       0.037900
      4 C4           0.6620    -0.0010     2.1500 c3         1 ASC       0.155300
      5 C5           0.6400     1.2520     3.0280 c3         1 ASC       0.153100
      6 C6          -0.6200     1.2480     3.8920 c3         1 ASC       0.116400
      7 O1          -0.6990    -0.0010    -0.9960 o          1 ASC      -0.548500
      8 O2           2.2490     0.0020    -1.1090 oh         1 ASC      -0.464100
      9 O3           3.1800     0.0010     1.6890 oh         1 ASC      -0.473100
     10 O4          -0.4600    -0.0020     1.2650 os         1 ASC      -0.360900
     11 O5           0.6440     2.4140     2.1970 oh         1 ASC      -0.585800
     12 O6          -0.6410     2.4180     4.7110 oh         1 ASC      -0.611800
     13 H4           0.6480    -0.8930     2.7660 h1         1 ASC       0.088700
     14 H5           1.5160     1.2610     3.6660 h1         1 ASC       0.059700
     15 H61         -1.4960     1.2390     3.2540 h1         1 ASC       0.037700
     16 H62         -0.6240     0.3670     4.5220 h1         1 ASC       0.037700
     17 HO2          2.1910    -0.8350    -1.5380 ho         1 ASC       0.424000
     18 HO3          3.5110    -0.8820     1.6890 ho         1 ASC       0.429000
     19 HO5          1.1530     3.0930     2.6080 ho         1 ASC       0.421000
     20 HO6         -1.3510     2.3580     5.3280 ho         1 ASC       0.410000
@<TRIPOS>BOND
     1     1     2 1
     2     1     7 2
     3     1    10 1
     4     2     3 2
     5     2     8 1
     6     3     4 1
     7     3     9 1
     8     4     5 1
     9     4    10 1
    10     4    13 1
    11     5     6 1
    12     5    11 1
    13     5    14 1
    14     6    12 1
    15     6    15 1
    16     6    16 1
    17     8    17 1
    18     9    18 1
    19    11    19 1
    20    12    20 1
@<TRIPOS>SUBSTRUCTURE
     1 ASC         1 TEMP              0 ****  ****    0 ROOT
