@<TRIPOS>MOLECULE
ASC
   20    20     1     0     0
SMALL
bcc


@<TRIPOS>ATOM
      1 C1          0.0410   -0.1600    0.0300 c         1 ASC      0.724800
      2 C2          1.5160   -0.2420    0.0430 ce        1 ASC     -0.117100
      3 C3          1.9350   -0.1830    1.3390 c2        1 ASC      0.075900
      4 C4          0.7270   -0.0740    2.2510 c3        1 ASC      0.181300
      5 C5          0.7180    1.1970    3.1020 c3        1 ASC      0.147100
      6 C6         -0.5860    1.2700    3.9040 c3        1 ASC      0.091400
      7 O1         -0.8000   -0.1580   -0.8580 o         1 ASC     -0.560500
      8 O2          2.3240   -0.3830   -1.0480 oh        1 ASC     -0.474100
      9 O3          3.1700   -0.2460    1.8840 oh        1 ASC     -0.455100
     10 O4         -0.4150   -0.0830    1.3450 os        1 ASC     -0.405900
     11 O5          0.8520    2.3130    2.2400 oh        1 ASC     -0.595800
     12 O6         -0.5430    2.5020    4.6090 oh        1 ASC     -0.612800
     13 H4          0.6190   -0.9790    2.9070 h1        1 ASC      0.099700
     14 H5          1.6030    1.1620    3.7990 h1        1 ASC      0.068700
     15 H61        -0.6440    0.4190    4.6310 h1        1 ASC      0.049200
     16 H62        -1.4650    1.2380    3.2070 h1        1 ASC      0.049200
     17 HO2         1.7940   -0.1230   -1.8200 ho        1 ASC      0.442000
     18 HO3         3.8120   -0.2060    1.1530 ho        1 ASC      0.448000
     19 HO5         0.6390    3.0970    2.7660 ho        1 ASC      0.430000
     20 HO6        -1.4370    2.6740    4.9250 ho        1 ASC      0.415000
@<TRIPOS>BOND
     1    1    2 1   
     2    1    7 2   
     3    1   10 1   
     4    2    3 2   
     5    2    8 1   
     6    3    4 1   
     7    3    9 1   
     8    4    5 1   
     9    4   10 1   
    10    4   13 1   
    11    5    6 1   
    12    5   11 1   
    13    5   14 1   
    14    6   12 1   
    15    6   15 1   
    16    6   16 1   
    17    8   17 1   
    18    9   18 1   
    19   11   19 1   
    20   12   20 1   
@<TRIPOS>SUBSTRUCTURE
     1 ASC         1 TEMP              0 ****  ****    0 ROOT
