@<TRIPOS>MOLECULE
ASD
   47    50     1     0     0
SMALL
bcc


@<TRIPOS>ATOM
      1 C1         -0.0480    0.0490    0.1300 c3        1 ASD     -0.071400
      2 C10         1.4770    0.1760   -0.0040 c3        1 ASD     -0.013800
      3 C11         1.4960   -0.9930   -2.2840 c3        1 ASD     -0.075400
      4 C12         2.1270   -2.0410   -3.1900 c3        1 ASD     -0.056400
      5 C13         3.6370   -1.9060   -3.2010 c3        1 ASD     -0.153000
      6 C14         4.1220   -2.0180   -1.7370 c3        1 ASD     -0.064700
      7 C15         5.6170   -2.2970   -1.8520 c3        1 ASD     -0.072400
      8 C16         5.7350   -3.1820   -3.0960 c3        1 ASD     -0.188400
      9 C17         4.4380   -3.0220   -3.8650 c         1 ASD      0.577100
     10 C18         4.0550   -0.6190   -3.9000 c3        1 ASD     -0.083100
     11 C19         1.7420    1.5580   -0.6000 c3        1 ASD     -0.087100
     12 C2         -0.5010   -0.9570    1.1610 c3        1 ASD     -0.182400
     13 C3          0.0680   -0.6100    2.5090 c         1 ASD      0.569300
     14 C4          1.4890   -0.2380    2.4830 ce        1 ASD     -0.260200
     15 C5          2.1390    0.0740    1.3510 c2        1 ASD     -0.035400
     16 C6          3.6220    0.2370    1.3400 c3        1 ASD     -0.054200
     17 C7          4.2280   -0.8540    0.4750 c3        1 ASD     -0.071400
     18 C8          3.6220   -0.8470   -0.9180 c3        1 ASD     -0.049700
     19 C9          2.0820   -0.9470   -0.8770 c3        1 ASD     -0.046700
     20 O1         -0.5930   -0.6760    3.5510 o         1 ASD     -0.531100
     21 O2          4.1070   -3.6730   -4.8520 o         1 ASD     -0.517100
     22 H11        -0.4600    1.0550    0.4200 hc        1 ASD      0.052200
     23 H12        -0.4990   -0.2070   -0.8620 hc        1 ASD      0.052200
     24 H111        1.5930    0.0180   -2.7600 hc        1 ASD      0.044700
     25 H112        0.4000   -1.2280   -2.2220 hc        1 ASD      0.044700
     26 H121        1.8470   -3.0670   -2.8370 hc        1 ASD      0.053200
     27 H122        1.7270   -1.9220   -4.2310 hc        1 ASD      0.053200
     28 H14         3.6580   -2.9520   -1.2980 hc        1 ASD      0.053700
     29 H151        6.1950   -1.3490   -1.9780 hc        1 ASD      0.050200
     30 H152        6.0040   -2.8170   -0.9420 hc        1 ASD      0.050200
     31 H161        6.5960   -2.8750   -3.7400 hc        1 ASD      0.075700
     32 H162        5.8780   -4.2560   -2.8180 hc        1 ASD      0.075700
     33 H181        3.8020   -0.6890   -4.9870 hc        1 ASD      0.043700
     34 H182        3.5260    0.2650   -3.4730 hc        1 ASD      0.043700
     35 H183        5.1550   -0.4570   -3.7960 hc        1 ASD      0.043700
     36 H191        1.0970    1.7140   -1.4990 hc        1 ASD      0.041033
     37 H192        1.5010    2.3500    0.1500 hc        1 ASD      0.041033
     38 H193        2.8070    1.6800   -0.9060 hc        1 ASD      0.041033
     39 H21        -1.6210   -0.9780    1.2090 hc        1 ASD      0.071700
     40 H22        -0.1510   -1.9880    0.8890 hc        1 ASD      0.071700
     41 H4          2.0060   -0.2690    3.4570 ha        1 ASD      0.149000
     42 H61         4.0400    0.1690    2.3790 hc        1 ASD      0.056200
     43 H62         3.8940    1.2480    0.9350 hc        1 ASD      0.056200
     44 H71         4.0590   -1.8520    0.9570 hc        1 ASD      0.048200
     45 H72         5.3360   -0.7000    0.3960 hc        1 ASD      0.048200
     46 H8          3.9200    0.1120   -1.4240 hc        1 ASD      0.057700
     47 H9          1.8210   -1.9210   -0.3700 hc        1 ASD      0.051700
@<TRIPOS>BOND
     1    1    2 1   
     2    1   12 1   
     3    1   22 1   
     4    1   23 1   
     5    2   11 1   
     6    2   15 1   
     7    2   19 1   
     8    3    4 1   
     9    3   19 1   
    10    3   24 1   
    11    3   25 1   
    12    4    5 1   
    13    4   26 1   
    14    4   27 1   
    15    5    6 1   
    16    5    9 1   
    17    5   10 1   
    18    6    7 1   
    19    6   18 1   
    20    6   28 1   
    21    7    8 1   
    22    7   29 1   
    23    7   30 1   
    24    8    9 1   
    25    8   31 1   
    26    8   32 1   
    27    9   21 2   
    28   10   33 1   
    29   10   34 1   
    30   10   35 1   
    31   11   36 1   
    32   11   37 1   
    33   11   38 1   
    34   12   13 1   
    35   12   39 1   
    36   12   40 1   
    37   13   14 1   
    38   13   20 2   
    39   14   15 2   
    40   14   41 1   
    41   15   16 1   
    42   16   17 1   
    43   16   42 1   
    44   16   43 1   
    45   17   18 1   
    46   17   44 1   
    47   17   45 1   
    48   18   19 1   
    49   18   46 1   
    50   19   47 1   
@<TRIPOS>SUBSTRUCTURE
     1 ASD         1 TEMP              0 ****  ****    0 ROOT
