@<TRIPOS>MOLECULE
molecule
   47    50     1     0     0
SMALL
bcc


@<TRIPOS>ATOM
      1 C1           0.0000     0.0000     0.0000 c3         1 ASD      -0.069400
      2 C10          1.5090     0.0000     0.0000 c3         1 ASD      -0.026800
      3 C11          1.4690    -1.1430    -2.2170 c3         1 ASD      -0.085400
      4 C12          2.1070    -2.2050    -3.1270 c3         1 ASD      -0.054400
      5 C13          3.5980    -1.9300    -3.1620 c3         1 ASD      -0.178000
      6 C14          4.1420    -2.1330    -1.7510 c3         1 ASD      -0.065700
      7 C15          5.6540    -2.1180    -2.0110 c3         1 ASD      -0.076400
      8 C16          5.7780    -2.9370    -3.3250 c3         1 ASD      -0.195400
      9 C17          4.4370    -2.8440    -4.0040 c          1 ASD       0.591100
     10 C18          3.8430    -0.4800    -3.5860 c3         1 ASD      -0.083100
     11 C19          1.9520     1.2870    -0.6980 c3         1 ASD      -0.095100
     12 C2          -0.5800    -0.7510     1.1980 c3         1 ASD      -0.178400
     13 C3           0.0080    -0.1350     2.4530 c          1 ASD       0.569300
     14 C4           1.4720    -0.0260     2.4950 ce         1 ASD      -0.257200
     15 C5           2.1520     0.0000     1.3510 c2         1 ASD      -0.049400
     16 C6           3.6690     0.0240     1.4050 c3         1 ASD      -0.049200
     17 C7           4.1850    -1.1260     0.5340 c3         1 ASD      -0.074400
     18 C8           3.6090    -1.0100    -0.8790 c3         1 ASD      -0.067700
     19 C9           2.0790    -1.1590    -0.8200 c3         1 ASD      -0.049700
     20 O1          -0.6900     0.2460     3.3690 o          1 ASD      -0.521100
     21 O2           4.1110    -3.3910    -5.0310 o          1 ASD      -0.506100
     22 H11         -0.3500    -0.4710    -0.9110 hc         1 ASD       0.055700
     23 H12         -0.3500     1.0250     0.0280 hc         1 ASD       0.055700
     24 H111         1.6230    -0.1640    -2.6570 hc         1 ASD       0.049200
     25 H112         0.4060    -1.3380    -2.1400 hc         1 ASD       0.049200
     26 H121         1.6960    -2.1280    -4.1260 hc         1 ASD       0.053700
     27 H122         1.9250    -3.1930    -2.7220 hc         1 ASD       0.053700
     28 H14          3.8340    -3.0960    -1.3620 hc         1 ASD       0.063700
     29 H151         6.0070    -1.1040    -2.1570 hc         1 ASD       0.051200
     30 H152         6.1870    -2.6060    -1.2040 hc         1 ASD       0.051200
     31 H161         6.5450    -2.5080    -3.9580 hc         1 ASD       0.074200
     32 H162         6.0080    -3.9700    -3.0970 hc         1 ASD       0.074200
     33 H181         4.6420    -0.4480    -4.3170 hc         1 ASD       0.044700
     34 H182         4.1220     0.1070    -2.7190 hc         1 ASD       0.044700
     35 H183         2.9380    -0.0730    -4.0210 hc         1 ASD       0.044700
     36 H191         1.3740     1.4240    -1.6040 hc         1 ASD       0.041700
     37 H192         1.7900     2.1300    -0.0370 hc         1 ASD       0.041700
     38 H193         3.0040     1.2200    -0.9460 hc         1 ASD       0.041700
     39 H21         -1.6580    -0.6470     1.2080 hc         1 ASD       0.069200
     40 H22         -0.3070    -1.7980     1.1410 hc         1 ASD       0.069200
     41 H4           1.9980    -0.1420     3.4360 ha         1 ASD       0.151000
     42 H61          4.0020    -0.1130     2.4260 hc         1 ASD       0.056200
     43 H62          4.0340     0.9680     1.0170 hc         1 ASD       0.056200
     44 H71          5.2660    -1.0820     0.4840 hc         1 ASD       0.047700
     45 H72          3.8780    -2.0700     0.9690 hc         1 ASD       0.047700
     46 H8           3.8720    -0.0510    -1.3080 hc         1 ASD       0.073700
     47 H9           1.8300    -2.0950    -0.3340 hc         1 ASD       0.056700
@<TRIPOS>BOND
     1     1     2 1
     2     1    12 1
     3     1    22 1
     4     1    23 1
     5     2    11 1
     6     2    15 1
     7     2    19 1
     8     3     4 1
     9     3    19 1
    10     3    24 1
    11     3    25 1
    12     4     5 1
    13     4    26 1
    14     4    27 1
    15     5     6 1
    16     5     9 1
    17     5    10 1
    18     6     7 1
    19     6    18 1
    20     6    28 1
    21     7     8 1
    22     7    29 1
    23     7    30 1
    24     8     9 1
    25     8    31 1
    26     8    32 1
    27     9    21 2
    28    10    33 1
    29    10    34 1
    30    10    35 1
    31    11    36 1
    32    11    37 1
    33    11    38 1
    34    12    13 1
    35    12    39 1
    36    12    40 1
    37    13    14 1
    38    13    20 2
    39    14    15 2
    40    14    41 1
    41    15    16 1
    42    16    17 1
    43    16    42 1
    44    16    43 1
    45    17    18 1
    46    17    44 1
    47    17    45 1
    48    18    19 1
    49    18    46 1
    50    19    47 1
@<TRIPOS>SUBSTRUCTURE
     1 ASD         1 TEMP              0 ****  ****    0 ROOT
