@<TRIPOS>MOLECULE
molecule
   30    31     1     0     0
SMALL
bcc


@<TRIPOS>ATOM
      1 C1           0.0000     0.0000     0.0000 ca         1 ASE       0.076100
      2 C2           1.3810     0.0000     0.0000 ca         1 ASE      -0.107000
      3 C3           2.0700     0.0000     1.2130 ca         1 ASE      -0.084800
      4 C4          -0.7010    -0.0040     1.2020 ca         1 ASE      -0.128000
      5 C5          -0.0310    -0.0110     2.4050 ca         1 ASE      -0.131000
      6 C6           1.3590    -0.0110     2.4260 ca         1 ASE      -0.044200
      7 C7           3.4900    -0.0090     1.5760 cc         1 ASE      -0.159400
      8 C8           3.5530    -0.0140     2.9160 cd         1 ASE      -0.086100
      9 N9           2.2910    -0.0160     3.4430 na         1 ASE      -0.182400
     10 O10         -0.6770     0.0060    -1.1800 oh         1 ASE      -0.521100
     11 C11          4.6570    -0.0030     0.6230 c3         1 ASE      -0.019200
     12 C12          5.0520    -1.4440     0.2940 c3         1 ASE       0.113000
     13 N13          6.1880    -1.4410    -0.6310 ns         1 ASE      -0.592900
     14 C14          6.7100    -2.6050    -1.0630 c          1 ASE       0.654100
     15 C15          7.8780    -2.6020    -2.0140 c3         1 ASE      -0.172100
     16 O16          6.2390    -3.6570    -0.6840 o          1 ASE      -0.609100
     17 H2           1.9250     0.0030    -0.9360 ha         1 ASE       0.141000
     18 H4          -1.7840    -0.0040     1.1920 ha         1 ASE       0.141000
     19 H5          -0.5870    -0.0130     3.3340 ha         1 ASE       0.129000
     20 H8           4.4690    -0.0160     3.4960 h4         1 ASE       0.167000
     21 HN9          2.0750    -0.0200     4.4200 hn         1 ASE       0.298700
     22 HO0         -0.7970    -0.8800    -1.4780 ho         1 ASE       0.415000
     23 H111         5.4960     0.5050     1.0830 hc         1 ASE       0.049200
     24 H112         4.3780     0.5110    -0.2880 hc         1 ASE       0.049200
     25 H121         4.2130    -1.9520    -0.1660 h1         1 ASE       0.057200
     26 H122         5.3300    -1.9590     1.2060 h1         1 ASE       0.057200
     27 HN3          6.5760    -0.5730    -0.9420 hn         1 ASE       0.310500
     28 H151         7.5990    -2.0870    -2.9250 hc         1 ASE       0.060033
     29 H152         8.1570    -3.6220    -2.2460 hc         1 ASE       0.060033
     30 H153         8.7170    -2.0940    -1.5540 hc         1 ASE       0.060033
@<TRIPOS>BOND
     1     1     2 ar
     2     1     4 ar
     3     1    10 1
     4     2     3 ar
     5     2    17 1
     6     3     6 ar
     7     3     7 1
     8     4     5 ar
     9     4    18 1
    10     5     6 ar
    11     5    19 1
    12     6     9 1
    13     7     8 2
    14     7    11 1
    15     8     9 1
    16     8    20 1
    17     9    21 1
    18    10    22 1
    19    11    12 1
    20    11    23 1
    21    11    24 1
    22    12    13 1
    23    12    25 1
    24    12    26 1
    25    13    14 1
    26    13    27 1
    27    14    15 1
    28    14    16 2
    29    15    28 1
    30    15    29 1
    31    15    30 1
@<TRIPOS>SUBSTRUCTURE
     1 ASE         1 TEMP              0 ****  ****    0 ROOT
