@<TRIPOS>MOLECULE
ASF
   25    24     1     0     0
SMALL
bcc


@<TRIPOS>ATOM
      1 C2          1.0520   -1.2160   -0.0150 c3        1 ASF     -0.089100
      2 C3          2.3230   -0.4430    0.2250 c3        1 ASF     -0.079400
      3 C4          2.4120    0.0450    1.6560 c3        1 ASF     -0.031400
      4 C5          3.6830    0.8220    1.8930 c3        1 ASF     -0.356600
      5 C7          5.5940    1.1020    3.7110 c3        1 ASF     -0.302600
      6 C8          6.0850   -0.3210    3.8510 c3        1 ASF     -0.178400
      7 C9          6.7000   -0.8850    2.5560 c         1 ASF      0.906600
      8 O1          3.6010    2.6540    3.6460 o         1 ASF     -0.688800
      9 O2          3.1990    0.4350    4.3900 o         1 ASF     -0.688800
     10 O3          7.3260   -1.9750    2.6390 o         1 ASF     -0.840800
     11 O4          6.5480   -0.2380    1.4740 o         1 ASF     -0.840800
     12 S5          3.9200    1.2760    3.5120 s6        1 ASF      1.302000
     13 H2C1        1.0020   -2.1070    0.6550 hc        1 ASF      0.025033
     14 H2C2        0.1570   -0.5780    0.1840 hc        1 ASF      0.025033
     15 H2C3        1.0060   -1.5680   -1.0740 hc        1 ASF      0.025033
     16 H3C1        3.2120   -1.0900   -0.0010 hc        1 ASF      0.047200
     17 H3C2        2.3690    0.4350   -0.4720 hc        1 ASF      0.047200
     18 H4C1        1.5230    0.6900    1.8870 hc        1 ASF      0.044700
     19 H4C2        2.3760   -0.8350    2.3540 hc        1 ASF      0.044700
     20 H5C1        3.6830    1.7280    1.2300 h1        1 ASF      0.152200
     21 H5C2        4.5590    0.2010    1.5080 h1        1 ASF      0.152200
     22 H7C1        5.9200    1.6930    4.6070 h1        1 ASF      0.116700
     23 H7C2        6.1540    1.5440    2.8330 h1        1 ASF      0.116700
     24 H8C1        5.2460   -0.9940    4.1650 hc        1 ASF      0.046200
     25 H8C2        6.8710   -0.3750    4.6460 hc        1 ASF      0.046200
@<TRIPOS>BOND
     1    1    2 1   
     2    1   13 1   
     3    1   14 1   
     4    1   15 1   
     5    2    3 1   
     6    2   16 1   
     7    2   17 1   
     8    3    4 1   
     9    3   18 1   
    10    3   19 1   
    11    4   12 1   
    12    4   20 1   
    13    4   21 1   
    14    5    6 1   
    15    5   12 1   
    16    5   22 1   
    17    5   23 1   
    18    6    7 1   
    19    6   24 1   
    20    6   25 1   
    21    7   10 1   
    22    7   11 1   
    23    8   12 2   
    24    9   12 2   
@<TRIPOS>SUBSTRUCTURE
     1 ASF         1 TEMP              0 ****  ****    0 ROOT
