@<TRIPOS>MOLECULE
molecule
   25    24     1     0     0
SMALL
bcc


@<TRIPOS>ATOM
      1 C2           0.0000     0.0000     0.0000 c3         1 ASF      -0.093100
      2 C3           1.5300     0.0000     0.0000 c3         1 ASF      -0.076400
      3 C4           2.0400     0.0000     1.4420 c3         1 ASF      -0.056400
      4 C5           3.5700    -0.0000     1.4420 c3         1 ASF      -0.219600
      5 C7           5.9730    -0.0000     2.9130 c3         1 ASF      -0.139600
      6 C8           6.6680    -0.0000     4.2760 c3         1 ASF      -0.169400
      7 C9           8.1620    -0.0000     4.0780 c          1 ASF       0.900600
      8 O1           3.7990     1.2260     3.7650 o          1 ASF      -0.638800
      9 O2           3.7990    -1.2260     3.7650 o          1 ASF      -0.638800
     10 O3           8.9800    -0.0000     5.1420 o          1 ASF      -0.843800
     11 O4           8.6230    -0.0000     2.9620 o          1 ASF      -0.843800
     12 S5           4.1750     0.0000     3.1520 s6         1 ASF       1.065000
     13 H2C1        -0.3610    -0.8850     0.5110 hc         1 ASF       0.030033
     14 H2C2        -0.3610    -0.0000    -1.0210 hc         1 ASF       0.030033
     15 H2C3        -0.3610     0.8850     0.5110 hc         1 ASF       0.030033
     16 H3C1         1.8910    -0.8840    -0.5110 hc         1 ASF       0.039700
     17 H3C2         1.8910     0.8840    -0.5110 hc         1 ASF       0.039700
     18 H4C1         1.6790     0.8840     1.9520 hc         1 ASF       0.053700
     19 H4C2         1.6790    -0.8840     1.9520 hc         1 ASF       0.053700
     20 H5C1         3.9310    -0.8840     0.9310 h1         1 ASF       0.089700
     21 H5C2         3.9310     0.8840     0.9310 h1         1 ASF       0.089700
     22 H7C1         6.2640    -0.8850     2.3600 h1         1 ASF       0.099700
     23 H7C2         6.2640     0.8850     2.3600 h1         1 ASF       0.099700
     24 H8C1         6.3770    -0.8850     4.8300 hc         1 ASF       0.049700
     25 H8C2         6.3770     0.8850     4.8300 hc         1 ASF       0.049700
@<TRIPOS>BOND
     1     1     2 1
     2     2     3 1
     3     3     4 1
     4     4    12 1
     5     5     6 1
     6     5    12 1
     7     6     7 1
     8     7    10 1
     9     7    11 1
    10     8    12 2
    11     9    12 2
    12     1    13 1
    13     1    14 1
    14     1    15 1
    15     2    16 1
    16     2    17 1
    17     3    18 1
    18     3    19 1
    19     4    20 1
    20     4    21 1
    21     5    22 1
    22     5    23 1
    23     6    24 1
    24     6    25 1
@<TRIPOS>SUBSTRUCTURE
     1 ASF         1 TEMP              0 ****  ****    0 ROOT
