@<TRIPOS>MOLECULE
molecule
   48    52     1     0     0
SMALL
bcc


@<TRIPOS>ATOM
      1 C10          0.0000     0.0000     0.0000 ca         1 ASH      -0.053000
      2 C11          1.3850     0.0000     0.0000 ca         1 ASH      -0.261300
      3 C12          2.0610     0.0000     1.2070 ca         1 ASH       0.427200
      4 C14          0.0910     0.0110     2.4020 ca         1 ASH       0.430200
      5 C16         -4.1680     0.0020     0.1540 cc         1 ASH       0.759200
      6 C19         -4.6180     0.5780    -3.3700 ca         1 ASH      -0.116000
      7 C21         -2.8420    -0.3890    -4.6600 ca         1 ASH       0.090600
      8 C24         -0.2800    -1.5180    -7.0820 c3         1 ASH       0.136900
      9 C02         -5.0280     0.0190     3.5840 cd         1 ASH      -0.079700
     10 C03         -6.2670     0.0160     3.0360 cc         1 ASH       0.047600
     11 N04         -6.1440     0.0100     1.7070 nd         1 ASH      -0.293600
     12 C05         -4.8600     0.0080     1.3910 cc         1 ASH      -0.173600
     13 N06         -4.1350     0.0140     2.5570 na         1 ASH       0.085700
     14 C07         -2.7670     0.0130     2.4950 cc         1 ASH      -0.263600
     15 C08         -2.1450     0.0060     1.2870 cd         1 ASH       0.503800
     16 C09         -0.6630     0.0060     1.2310 ca         1 ASH      -0.265800
     17 N13          1.4070     0.0010     2.3530 nb         1 ASH      -0.689000
     18 N15         -2.8510    -0.0040     0.1430 nd         1 ASH      -0.770000
     19 C18         -4.1920    -0.1340    -2.2550 ca         1 ASH       0.124600
     20 C20         -3.9470     0.4480    -4.5690 ca         1 ASH      -0.151500
     21 N22         -2.1610    -0.5200    -5.8760 nh         1 ASH      -0.595000
     22 C23         -1.0310    -1.4500    -5.7490 c3         1 ASH       0.124800
     23 O25         -1.1880    -1.9080    -8.1160 os         1 ASH      -0.423600
     24 C26         -2.3020    -1.0240    -8.2690 c3         1 ASH       0.136900
     25 C27         -3.0730    -0.9510    -6.9480 c3         1 ASH       0.124800
     26 C28         -2.4200    -1.1040    -3.5480 ca         1 ASH      -0.151500
     27 C29         -3.0920    -0.9750    -2.3480 ca         1 ASH      -0.116000
     28 H10         -0.5550    -0.0020    -0.9300 ha         1 ASH       0.165000
     29 H11          1.9330    -0.0020    -0.9350 ha         1 ASH       0.142000
     30 H12          3.1440    -0.0040     1.2110 h4         1 ASH       0.025100
     31 H14         -0.4100     0.0130     3.3630 h4         1 ASH       0.023100
     32 H24          0.5180    -2.2470    -7.0100 h1         1 ASH       0.055950
     33 H24A         0.1320    -0.5440    -7.3140 h1         1 ASH       0.055950
     34 H03         -7.2010     0.0190     3.5840 h4         1 ASH       0.196000
     35 H07         -2.1840     0.0900     3.4050 h4         1 ASH       0.176000
     36 H20         -4.2780     1.0030    -5.4380 ha         1 ASH       0.139500
     37 H23         -0.3590    -1.0990    -4.9750 h1         1 ASH       0.051200
     38 H23A        -1.4020    -2.4360    -5.4940 h1         1 ASH       0.051200
     39 H26         -1.9440    -0.0360    -8.5320 h1         1 ASH       0.055950
     40 H26A        -2.9550    -1.3980    -9.0480 h1         1 ASH       0.055950
     41 H27         -3.8830    -0.2370    -7.0420 h1         1 ASH       0.051200
     42 H27A        -3.4730    -1.9300    -6.7090 h1         1 ASH       0.051200
     43 H28         -1.5600    -1.7590    -3.6190 ha         1 ASH       0.139500
     44 H29         -2.7610    -1.5320    -1.4800 ha         1 ASH       0.145000
     45 N17         -4.8740    -0.0030    -1.0400 nu         1 ASH      -0.745300
     46 Cl          -4.6510     0.0270     5.2780 cl         1 ASH      -0.046400
     47 H19         -5.4790     1.2310    -3.2990 ha         1 ASH       0.145000
     48 HN17        -5.8730     0.0520    -1.0300 hn         1 ASH       0.475800
@<TRIPOS>BOND
     1    16     1 ar
     2     1     2 ar
     3     1    28 1
     4     2     3 ar
     5     2    29 1
     6    17     3 ar
     7     3    30 1
     8    16     4 ar
     9     4    17 ar
    10     4    31 1
    11    12     5 1
    12     5    45 1
    13     5    18 2
    14    19     6 ar
    15     6    20 ar
    16     6    47 1
    17    26     7 ar
    18     7    20 ar
    19     7    21 1
    20    22     8 1
    21    23     8 1
    22     8    32 1
    23     8    33 1
    24    46     9 1
    25    10     9 2
    26     9    13 1
    27    10    11 1
    28    10    34 1
    29    11    12 2
    30    12    13 1
    31    13    14 1
    32    14    15 2
    33    14    35 1
    34    15    18 1
    35    15    16 1
    36    45    19 1
    37    45    48 1
    38    27    19 ar
    39    20    36 1
    40    25    21 1
    41    21    22 1
    42    22    37 1
    43    22    38 1
    44    24    23 1
    45    25    24 1
    46    24    39 1
    47    24    40 1
    48    25    41 1
    49    25    42 1
    50    27    26 ar
    51    26    43 1
    52    27    44 1
@<TRIPOS>SUBSTRUCTURE
     1 ASH         1 TEMP              0 ****  ****    0 ROOT
