@<TRIPOS>MOLECULE
molecule
   72    75     1     0     0
SMALL
bcc


@<TRIPOS>ATOM
      1 CAA          0.0000     0.0000     0.0000 c3         1 ASS      -0.032900
      2 CAD          1.5070     0.0000     0.0000 c2         1 ASS      -0.303200
      3 CAE          2.1670     0.0000     1.1440 c2         1 ASS       0.080000
      4 NBE          3.5560    -0.0010     1.1440 nh         1 ASS      -0.739400
      5 CAB          4.2890    -0.0020    -0.1250 c3         1 ASS       0.234100
      6 CAW          4.2890    -0.0010     2.4120 c3         1 ASS       0.303000
      7 CBA          4.5390    -1.4220     2.8480 cc         1 ASS      -0.072300
      8 NBG          3.6570    -2.1940     3.5530 na         1 ASS      -0.066400
      9 CAC          2.3290    -1.7630     3.9960 c3         1 ASS       0.038600
     10 CAN          5.6590    -2.1190     2.5970 cd         1 ASS      -0.194200
     11 CBB          5.4810    -3.4440     3.1950 ca         1 ASS      -0.067800
     12 CAM          6.2790    -4.5890     3.2680 ca         1 ASS      -0.119000
     13 CBC          4.2050    -3.4390     3.7840 ca         1 ASS      -0.063200
     14 CAL          3.7460    -4.5780     4.4360 ca         1 ASS      -0.106000
     15 CAK          4.5410    -5.7000     4.5050 ca         1 ASS      -0.193000
     16 CAZ          5.8060    -5.7090     3.9230 ca         1 ASS       0.113100
     17 OOX          6.5780    -6.8260     3.9970 os         1 ASS      -0.333900
     18 CAP          6.0290    -7.9490     4.6900 c3         1 ASS       0.139400
     19 CAO          7.0340    -9.1020     4.6680 c3         1 ASS      -0.084400
     20 H1          -0.3610     0.0920    -1.0170 hc         1 ASS       0.031367
     21 H2          -0.3610    -0.9270     0.4290 hc         1 ASS       0.031367
     22 H3          -0.3610     0.8350     0.5880 hc         1 ASS       0.031367
     23 H4           2.0490    -0.0010    -0.9380 ha         1 ASS       0.128000
     24 H5           1.6250     0.0000     2.0820 h4         1 ASS       0.131000
     25 H6           4.0380    -0.8930    -0.6870 h1         1 ASS       0.036033
     26 H7           5.3540     0.0120     0.0730 h1         1 ASS       0.036033
     27 H8           4.0180     0.8760    -0.6990 h1         1 ASS       0.036033
     28 H9           3.7040     0.5100     3.1670 h1         1 ASS       0.058200
     29 H10          5.2360     0.5090     2.2820 h1         1 ASS       0.058200
     30 H11          1.5840    -2.1010     3.2860 h1         1 ASS       0.047367
     31 H12          2.1180    -2.1880     4.9700 h1         1 ASS       0.047367
     32 H13          2.3030    -0.6820     4.0610 h1         1 ASS       0.047367
     33 H14          6.5850    -1.7170     2.2050 ha         1 ASS       0.152000
     34 H15          7.2630    -4.5970     2.8160 ha         1 ASS       0.144000
     35 H16          2.7630    -4.5820     4.8920 ha         1 ASS       0.125000
     36 H17          4.1790    -6.5830     5.0170 ha         1 ASS       0.135000
     37 H18          5.8190    -7.6720     5.7160 h1         1 ASS       0.032700
     38 H19          5.1120    -8.2600     4.2050 h1         1 ASS       0.032700
     39 H20          7.2440    -9.3790     3.6420 hc         1 ASS       0.056200
     40 H21          7.9510    -8.7910     5.1540 hc         1 ASS       0.056200
     41 C17          6.4460   -10.3040     5.4100 c3         1 ASS      -0.076400
     42 C18          7.4510   -11.4580     5.3900 c3         1 ASS      -0.071700
     43 C19          6.9170   -12.6160     6.2360 c3         1 ASS      -0.074400
     44 C20          7.8980   -13.7890     6.1620 c3         1 ASS       0.161300
     45 N1           8.0530   -14.2120     4.7640 n3         1 ASS      -0.724600
     46 C22          8.6080   -13.1300     3.9410 c3         1 ASS       0.161300
     47 C23          7.6490   -11.9380     3.9490 c3         1 ASS      -0.074400
     48 C24          8.8780   -15.4230     4.6690 c3         1 ASS       0.209100
     49 C25          8.8140   -15.9660     3.2630 ca         1 ASS      -0.080300
     50 C26          9.7300   -15.5450     2.3190 ca         1 ASS      -0.117000
     51 C27          9.6710   -16.0420     1.0290 ca         1 ASS      -0.129000
     52 C28          8.6960   -16.9590     0.6860 ca         1 ASS      -0.128000
     53 C29          7.7800   -17.3810     1.6320 ca         1 ASS      -0.129000
     54 C30          7.8420   -16.8870     2.9220 ca         1 ASS      -0.117000
     55 H22          6.2350   -10.0270     6.4360 hc         1 ASS       0.043700
     56 H23          5.5290   -10.6150     4.9240 hc         1 ASS       0.043700
     57 H24          8.4000   -11.1250     5.7920 hc         1 ASS       0.050700
     58 H25          5.9530   -12.9280     5.8540 hc         1 ASS       0.050700
     59 H26          6.8170   -12.2940     7.2660 hc         1 ASS       0.050700
     60 H27          8.8600   -13.4790     6.5520 h1         1 ASS       0.035200
     61 H28          7.5150   -14.6160     6.7470 h1         1 ASS       0.035200
     62 H30          9.5650   -12.8240     4.3460 h1         1 ASS       0.035200
     63 H31          8.7370   -13.4810     2.9240 h1         1 ASS       0.035200
     64 H32          6.6940   -12.2400     3.5350 hc         1 ASS       0.050700
     65 H33          8.0680   -11.1340     3.3560 hc         1 ASS       0.050700
     66 H34          9.9050   -15.1800     4.9150 h1         1 ASS       0.038700
     67 H35          8.5070   -16.1690     5.3610 h1         1 ASS       0.038700
     68 H36         10.4950   -14.8260     2.5880 ha         1 ASS       0.130500
     69 H37         10.3890   -15.7130     0.2880 ha         1 ASS       0.128500
     70 H38          8.6480   -17.3480    -0.3240 ha         1 ASS       0.128000
     71 H39          7.0160   -18.1010     1.3640 ha         1 ASS       0.128500
     72 H40          7.1240   -17.2160     3.6630 ha         1 ASS       0.130500
@<TRIPOS>BOND
     1     1     2 1
     2     2     3 2
     3     3     4 1
     4     4     6 1
     5     4     5 1
     6     6     7 1
     7     7     8 1
     8     7    10 2
     9     9     8 1
    10     8    13 1
    11    10    11 1
    12    13    11 ar
    13    13    14 ar
    14    11    12 ar
    15    14    15 ar
    16    12    16 ar
    17    15    16 ar
    18    16    17 1
    19    17    18 1
    20    18    19 1
    21     1    20 1
    22     1    21 1
    23     1    22 1
    24     2    23 1
    25     3    24 1
    26     5    25 1
    27     5    26 1
    28     5    27 1
    29     6    28 1
    30     6    29 1
    31     9    30 1
    32     9    31 1
    33     9    32 1
    34    10    33 1
    35    12    34 1
    36    14    35 1
    37    15    36 1
    38    18    37 1
    39    18    38 1
    40    19    39 1
    41    19    40 1
    42    19    41 1
    43    41    42 1
    44    42    43 1
    45    43    44 1
    46    44    45 1
    47    45    46 1
    48    46    47 1
    49    47    42 1
    50    45    48 1
    51    48    49 1
    52    49    50 ar
    53    50    51 ar
    54    51    52 ar
    55    52    53 ar
    56    53    54 ar
    57    54    49 ar
    58    41    55 1
    59    41    56 1
    60    42    57 1
    61    43    58 1
    62    43    59 1
    63    44    60 1
    64    44    61 1
    65    46    62 1
    66    46    63 1
    67    47    64 1
    68    47    65 1
    69    48    66 1
    70    48    67 1
    71    50    68 1
    72    51    69 1
    73    52    70 1
    74    53    71 1
    75    54    72 1
@<TRIPOS>SUBSTRUCTURE
     1 ASS         1 TEMP              0 ****  ****    0 ROOT
