@<TRIPOS>MOLECULE
ASS
   72    77     1     0     0
SMALL
bcc


@<TRIPOS>ATOM
      1 CAA          0.0000     0.0000     0.0000 DU         1 ASS       0.083000
      2 CAD          1.5070     0.0000     0.0000 c2         1 ASS      -0.732000
      3 CAE          2.1670     0.0000     1.1440 c2         1 ASS      -0.245000
      4 NBE          3.5560    -0.0010     1.1440 nx         1 ASS       0.207000
      5 CAB          4.2890    -0.0020    -0.1250 c3         1 ASS      -0.166000
      6 CAW          4.2890    -0.0010     2.4120 c3         1 ASS       0.003000
      7 CBA          4.5390    -1.4220     2.8480 c2         1 ASS      -0.238000
      8 NBG          3.6570    -2.1940     3.5530 na         1 ASS       0.337000
      9 CAC          2.3290    -1.7630     3.9960 c3         1 ASS      -0.123000
     10 CAN          5.6590    -2.1190     2.5970 c2         1 ASS      -0.169000
     11 CBB          5.4810    -3.4440     3.1950 ca         1 ASS      -0.054000
     12 CAM          6.2790    -4.5890     3.2680 ca         1 ASS      -0.094000
     13 CBC          4.2050    -3.4390     3.7840 ca         1 ASS      -0.193000
     14 CAL          3.7460    -4.5780     4.4360 ca         1 ASS      -0.058000
     15 CAK          4.5410    -5.7000     4.5050 ca         1 ASS      -0.181000
     16 CAZ          5.8060    -5.7090     3.9230 ca         1 ASS       0.079000
     17 OOX          6.5780    -6.8260     3.9970 os         1 ASS      -0.191000
     18 CAP          6.0290    -7.9490     4.6900 c3         1 ASS       0.052000
     19 CAO          7.0340    -9.1020     4.6680 c3         1 ASS      -0.122000
     20 H1          -0.3610    -1.0000    -0.2070 ha         1 ASS       0.026333
     21 H2          -0.3610     0.6790    -0.7630 ha         1 ASS       0.026333
     22 H3          -0.3610     0.3210     0.9700 ha         1 ASS       0.026333
     23 H4           0.8960     0.8750     0.1830 DU         1 ASS       0.229000
     24 H5           2.7790     0.8750     0.9610 DU         1 ASS       0.231000
     25 H6           4.0560    -0.9040    -0.6760 hx         1 ASS       0.073667
     26 H7           4.0000     0.8640    -0.7090 hx         1 ASS       0.073667
     27 H8           5.3540     0.0350     0.0730 hx         1 ASS       0.073667
     28 H9           5.2360     0.5090     2.2820 hx         1 ASS       0.078000
     29 H10          3.7040     0.5100     3.1670 hx         1 ASS       0.078000
     30 H11          2.3130    -0.6840     4.0930 h1         1 ASS       0.066000
     31 H12          1.5880    -2.0720     3.2690 h1         1 ASS       0.066000
     32 H13          2.1050    -2.2150     4.9550 h1         1 ASS       0.066000
     33 H14          6.5850    -1.7170     2.2050 ha         1 ASS       0.129000
     34 H15          7.2630    -4.5970     2.8160 ha         1 ASS       0.116000
     35 H16          2.7630    -4.5820     4.8920 ha         1 ASS       0.100000
     36 H17          4.1790    -6.5830     5.0170 ha         1 ASS       0.119000
     37 H18          5.8190    -7.6720     5.7160 h1         1 ASS       0.040000
     38 H19          5.1120    -8.2600     4.2050 h1         1 ASS       0.040000
     39 H20          7.2440    -9.3790     3.6420 hc         1 ASS       0.067500
     40 H21          7.9510    -8.7910     5.1540 hc         1 ASS       0.067500
     41 C17          6.4460   -10.3040     5.4100 c3         1 ASS      -0.098000
     42 C18          7.4510   -11.4580     5.3900 c3         1 ASS      -0.092000
     43 C19          6.9170   -12.6160     6.2360 c3         1 ASS      -0.104500
     44 C20          7.8980   -13.7890     6.1620 c3         1 ASS      -0.090000
     45 N1           8.0530   -14.2120     4.7640 n3         1 ASS      -0.059000
     46 C22          8.6080   -13.1300     3.9410 c3         1 ASS      -0.090000
     47 C23          7.6490   -11.9380     3.9490 c3         1 ASS      -0.104500
     48 C24          8.8780   -15.4230     4.6690 c3         1 ASS      -0.033000
     49 C25          8.8140   -15.9660     3.2630 ca         1 ASS      -0.083000
     50 C26          9.7300   -15.5450     2.3190 ca         1 ASS      -0.091500
     51 C27          9.6710   -16.0420     1.0290 ca         1 ASS      -0.101500
     52 C28          8.6960   -16.9590     0.6860 ca         1 ASS      -0.101000
     53 C29          7.7800   -17.3810     1.6320 ca         1 ASS      -0.101500
     54 C30          7.8420   -16.8870     2.9220 ca         1 ASS      -0.091500
     55 H22          6.2350   -10.0270     6.4360 hc         1 ASS       0.056000
     56 H23          5.5290   -10.6150     4.9240 hc         1 ASS       0.056000
     57 H24          8.4000   -11.1250     5.7920 hc         1 ASS       0.068000
     58 H25          6.8180   -12.2940     7.2660 hc         1 ASS       0.063000
     59 H26          5.9530   -12.9280     5.8540 hc         1 ASS       0.063000
     60 H27          8.8600   -13.4790     6.5520 h1         1 ASS       0.050750
     61 H28          7.5150   -14.6160     6.7470 h1         1 ASS       0.050750
     62 H30          9.5650   -12.8240     4.3460 h1         1 ASS       0.050750
     63 H31          8.7370   -13.4810     2.9240 h1         1 ASS       0.050750
     64 H32          6.6940   -12.2400     3.5350 hc         1 ASS       0.063000
     65 H33          8.0680   -11.1340     3.3560 hc         1 ASS       0.063000
     66 H34          9.9050   -15.1800     4.9150 h1         1 ASS       0.050500
     67 H35          8.5070   -16.1690     5.3610 h1         1 ASS       0.050500
     68 H36         10.4950   -14.8260     2.5880 ha         1 ASS       0.106500
     69 H37         10.3890   -15.7130     0.2880 ha         1 ASS       0.102000
     70 H38          8.6480   -17.3480    -0.3240 ha         1 ASS       0.101000
     71 H39          7.0160   -18.1010     1.3640 ha         1 ASS       0.102000
     72 H40          7.1240   -17.2160     3.6630 ha         1 ASS       0.106500
@<TRIPOS>BOND
     1     1     2 1   
     2     1    20 1   
     3     1    21 1   
     4     1    22 1   
     5     1    23 1   
     6     2     3 1   
     7     2    23 1   
     8     3     4 1   
     9     3    24 1   
    10     4     5 1   
    11     4     6 1   
    12     4    24 1   
    13     5    25 1   
    14     5    26 1   
    15     5    27 1   
    16     6     7 1   
    17     6    28 1   
    18     6    29 1   
    19     7     8 1   
    20     7    10 1   
    21     8     9 1   
    22     8    13 1   
    23     9    30 1   
    24     9    31 1   
    25     9    32 1   
    26    10    11 1   
    27    10    33 1   
    28    11    12 1   
    29    11    13 1   
    30    12    16 1   
    31    12    34 1   
    32    13    14 1   
    33    14    15 1   
    34    14    35 1   
    35    15    16 1   
    36    15    36 1   
    37    16    17 1   
    38    17    18 1   
    39    18    19 1   
    40    18    37 1   
    41    18    38 1   
    42    19    39 1   
    43    19    40 1   
    44    19    41 1   
    45    41    42 1   
    46    41    55 1   
    47    41    56 1   
    48    42    43 1   
    49    42    47 1   
    50    42    57 1   
    51    43    44 1   
    52    43    58 1   
    53    43    59 1   
    54    44    45 1   
    55    44    60 1   
    56    44    61 1   
    57    45    46 1   
    58    45    48 1   
    59    46    47 1   
    60    46    62 1   
    61    46    63 1   
    62    47    64 1   
    63    47    65 1   
    64    48    49 1   
    65    48    66 1   
    66    48    67 1   
    67    49    50 1   
    68    49    54 1   
    69    50    51 1   
    70    50    68 1   
    71    51    52 1   
    72    51    69 1   
    73    52    53 1   
    74    52    70 1   
    75    53    54 1   
    76    53    71 1   
    77    54    72 1   
@<TRIPOS>SUBSTRUCTURE
     1 ASS         1 TEMP              0 ****  ****    0 ROOT
