@<TRIPOS>MOLECULE
molecule
   43    42     1     0     0
SMALL
bcc


@<TRIPOS>ATOM
      1 C1           0.0000     0.0000     0.0000 c          1 ASV       0.867600
      2 C2           1.5070     0.0000     0.0000 c3         1 ASV      -0.015500
      3 C3           2.0170     0.0000     1.4420 c3         1 ASV      -0.096400
      4 C4           3.5470     0.0000     1.4420 c3         1 ASV      -0.085400
      5 C7           4.0570     0.0000     2.8840 c3         1 ASV      -0.150400
      6 C10          5.5630    -0.0020     2.8840 c          1 ASV       0.660100
      7 N11          6.2380    -0.0020     4.0500 ns         1 ASV      -0.554900
      8 C12          7.7020    -0.0020     4.0510 c3         1 ASV       0.052700
      9 C13          8.2050    -0.7110     5.2810 c          1 ASV       0.651100
     10 N14          1.9970     1.1970    -0.6930 nz         1 ASV      -0.790600
     11 O15          6.1710    -0.0030     1.8340 o          1 ASV      -0.611100
     12 C16          8.2140     1.4410     4.0490 c3         1 ASV       0.028700
     13 S17          7.6090     2.2950     2.5680 sh         1 ASV      -0.404900
     14 O18          7.4170    -1.1710     6.0800 o          1 ASV      -0.620100
     15 O19         -0.6720    -1.1620     0.0010 o          1 ASV      -0.783300
     16 O20         -0.6040     1.0470    -0.0010 o          1 ASV      -0.783300
     17 N29          9.5290    -0.8350     5.4950 ns         1 ASV      -0.522900
     18 C30         10.0180    -1.5250     6.6910 c3         1 ASV       0.030900
     19 C31         10.1840    -2.9920     6.3920 c          1 ASV       0.887600
     20 C32         11.3460    -0.9430     7.1000 c2         1 ASV      -0.134200
     21 C33         11.4840    -0.3940     8.2810 c2         1 ASV      -0.253000
     22 O42         10.4910    -3.3930     5.1470 o          1 ASV      -0.830300
     23 O43         10.0430    -3.8080     7.2710 o          1 ASV      -0.830300
     24 H2           1.8680    -0.8850    -0.5100 hx         1 ASV       0.106700
     25 H3C1         1.6560     0.8840     1.9530 hc         1 ASV       0.082700
     26 H3C2         1.6560    -0.8850     1.9520 hc         1 ASV       0.082700
     27 H4C1         3.9080     0.8850     0.9320 hc         1 ASV       0.045700
     28 H4C2         3.9080    -0.8840     0.9310 hc         1 ASV       0.045700
     29 H7C1         3.6950    -0.8840     3.3950 hc         1 ASV       0.067700
     30 H7C2         3.6970     0.8850     3.3940 hc         1 ASV       0.067700
     31 H11          5.7370     0.0010     4.9170 hn         1 ASV       0.335500
     32 H12          8.0630    -0.5130     3.1670 h1         1 ASV       0.116700
     33 H141         1.9810     1.9760    -0.0640 hn         1 ASV       0.439467
     34 H142         1.4090     1.3910    -1.4800 hn         1 ASV       0.439467
     35 H161         9.2970     1.4400     4.0480 h1         1 ASV       0.063200
     36 H162         7.8540     1.9530     4.9330 h1         1 ASV       0.063200
     37 H17          8.2970     3.4170     2.3920 hs         1 ASV       0.181800
     38 H29         10.1800    -0.4740     4.8250 hn         1 ASV       0.307500
     39 H30          9.3050    -1.4000     7.4970 h1         1 ASV       0.077700
     40 H321        12.1870    -0.9780     6.4170 ha         1 ASV       0.121000
     41 H331        12.4390     0.0250     8.5760 ha         1 ASV       0.100500
     42 H332        10.6440    -0.3590     8.9640 ha         1 ASV       0.100500
     43 H143         2.9370     1.0440    -0.9990 hn         1 ASV       0.439467
@<TRIPOS>BOND
     1     1     2 1
     2     1    15 1
     3     1    16 1
     4     2     3 1
     5     2    10 1
     6     2    24 1
     7     3     4 1
     8     3    25 1
     9     3    26 1
    10     4     5 1
    11     4    27 1
    12     4    28 1
    13     5     6 1
    14     5    29 1
    15     5    30 1
    16     6     7 1
    17     6    11 2
    18     7     8 1
    19     7    31 1
    20     8     9 1
    21     8    12 1
    22     8    32 1
    23     9    14 2
    24     9    17 1
    25    10    33 1
    26    10    34 1
    27    12    13 1
    28    12    35 1
    29    12    36 1
    30    13    37 1
    31    17    18 1
    32    17    38 1
    33    18    19 1
    34    18    20 1
    35    18    39 1
    36    19    22 1
    37    19    23 1
    38    20    21 2
    39    20    40 1
    40    21    41 1
    41    21    42 1
    42    43    10 1
@<TRIPOS>SUBSTRUCTURE
     1 ASV         1 TEMP              0 ****  ****    0 ROOT
