@<TRIPOS>MOLECULE
molecule
   47    50     1     0     0
SMALL
bcc


@<TRIPOS>ATOM
      1 C1           0.0000     0.0000     0.0000 c3         1 ASW       0.131700
      2 O2           1.4290     0.0000     0.0000 os         1 ASW      -0.338900
      3 C3           2.0460     0.0000     1.2120 ca         1 ASW       0.102100
      4 C4           1.2930    -0.0040     2.3730 ca         1 ASW      -0.220000
      5 C5           1.9250    -0.0050     3.6090 ca         1 ASW       0.151600
      6 N6           1.1650    -0.0100     4.7840 nu         1 ASW      -0.759500
      7 S7           1.8820    -0.3700     6.2320 s6         1 ASW       1.326900
      8 C8           2.4980    -2.0640     6.0250 c3         1 ASW      -0.248300
      9 O9           2.9640     0.5450     6.3250 o          1 ASW      -0.623300
     10 O10          0.8140    -0.3390     7.1690 o          1 ASW      -0.623300
     11 C11          3.3120     0.0000     3.6800 ca         1 ASW      -0.190000
     12 C12          4.0660     0.0060     2.5220 ca         1 ASW      -0.123000
     13 C13          3.4380     0.0010     1.2850 ca         1 ASW       0.147600
     14 N14          4.2030     0.0010     0.1100 nu         1 ASW      -0.707000
     15 C15          5.5730     0.1260     0.1820 ca         1 ASW       0.207600
     16 C16          6.2010     1.3750     0.0010 ca         1 ASW      -0.168800
     17 C17          5.4460     2.5320    -0.2550 ca         1 ASW      -0.103000
     18 C18          6.0770     3.7250    -0.4250 ca         1 ASW      -0.131500
     19 C19          7.4670     3.8160    -0.3470 ca         1 ASW      -0.113500
     20 C20          8.2300     2.7180    -0.1010 ca         1 ASW      -0.173300
     21 C21          7.6150     1.4630     0.0810 ca         1 ASW       0.441600
     22 N22          8.3520     0.3790     0.3230 nb         1 ASW      -0.682000
     23 C23          7.8020    -0.8210     0.4980 ca         1 ASW       0.441600
     24 C24          8.6120    -1.9460     0.7520 ca         1 ASW      -0.173300
     25 C25          8.0380    -3.1670     0.9300 ca         1 ASW      -0.113500
     26 C26          6.6550    -3.3290     0.8660 ca         1 ASW      -0.131500
     27 C27          5.8390    -2.2680     0.6230 ca         1 ASW      -0.103000
     28 C28          6.3940    -0.9910     0.4400 ca         1 ASW      -0.168800
     29 H1          -0.3610     0.8860     0.5080 h1         1 ASW       0.042700
     30 H2          -0.3610    -0.8830     0.5130 h1         1 ASW       0.042700
     31 H3          -0.3610    -0.0030    -1.0210 h1         1 ASW       0.042700
     32 H4           0.2120     0.0300     2.3180 ha         1 ASW       0.140000
     33 H5           0.1950     0.2350     4.7530 hn         1 ASW       0.463800
     34 H6           1.9880    -2.5340     5.1920 h1         1 ASW       0.102700
     35 H7           3.5630    -2.0400     5.8290 h1         1 ASW       0.102700
     36 H8           2.3090    -2.6310     6.9290 h1         1 ASW       0.102700
     37 H9           3.8040     0.0030     4.6450 ha         1 ASW       0.167000
     38 H10          5.1480     0.0080     2.5800 ha         1 ASW       0.157000
     39 H11          3.7580    -0.1340    -0.7760 hn         1 ASW       0.466800
     40 H12          4.3660     2.4740    -0.3170 ha         1 ASW       0.143500
     41 H13          5.4940     4.6160    -0.6230 ha         1 ASW       0.131500
     42 H14          7.9470     4.7770    -0.4860 ha         1 ASW       0.133000
     43 H15          9.3080     2.8080    -0.0440 ha         1 ASW       0.150500
     44 H16          9.6890    -1.8390     0.8060 ha         1 ASW       0.150500
     45 H17          8.6670    -4.0280     1.1240 ha         1 ASW       0.133000
     46 H18          6.2240    -4.3120     1.0110 ha         1 ASW       0.131500
     47 H19          4.7650    -2.4060     0.5760 ha         1 ASW       0.143500
@<TRIPOS>BOND
     1     1     2 1
     2     2     3 1
     3    10     7 2
     4     4     3 ar
     5     4     5 ar
     6     8     7 1
     7     3    13 ar
     8     7     6 1
     9     7     9 2
    10     6     5 1
    11     5    11 ar
    12    26    27 ar
    13    26    25 ar
    14    27    28 ar
    15    13    14 1
    16    13    12 ar
    17    14    15 1
    18    25    24 ar
    19    11    12 ar
    20    28    15 ar
    21    28    23 ar
    22    15    16 ar
    23    24    23 ar
    24    23    22 ar
    25    16    17 ar
    26    16    21 ar
    27    17    18 ar
    28    22    21 ar
    29    21    20 ar
    30    18    19 ar
    31    20    19 ar
    32     1    29 1
    33     1    30 1
    34     1    31 1
    35     4    32 1
    36     6    33 1
    37     8    34 1
    38     8    35 1
    39     8    36 1
    40    11    37 1
    41    12    38 1
    42    14    39 1
    43    17    40 1
    44    18    41 1
    45    19    42 1
    46    20    43 1
    47    24    44 1
    48    25    45 1
    49    26    46 1
    50    27    47 1
@<TRIPOS>SUBSTRUCTURE
     1 ASW         1 TEMP              0 ****  ****    0 ROOT
