@<TRIPOS>MOLECULE
ASW
   47    50     1     0     0
SMALL
bcc


@<TRIPOS>ATOM
      1 C1           0.0000     0.0000     0.0000 c3         1 ASW       0.250700
      2 O2           1.4290     0.0000     0.0000 os         1 ASW      -0.317900
      3 C3           2.0460     0.0000     1.2120 ca         1 ASW       0.112100
      4 C4           1.2930    -0.0040     2.3730 ca         1 ASW      -0.218000
      5 C5           1.9250    -0.0050     3.6090 ca         1 ASW       0.072600
      6 N6           1.1650    -0.0100     4.7840 nu         1 ASW      -0.393500
      7 S7           1.8820    -0.3700     6.2320 s6         1 ASW       0.952900
      8 C8           2.4980    -2.0640     6.0250 c3         1 ASW       0.005700
      9 O9           2.9640     0.5450     6.3250 o          1 ASW      -0.582800
     10 O10          0.8140    -0.3390     7.1690 o          1 ASW      -0.582800
     11 C11          3.3120     0.0000     3.6800 ca         1 ASW      -0.187000
     12 C12          4.0660     0.0060     2.5220 ca         1 ASW      -0.103000
     13 C13          3.4380     0.0010     1.2850 ca         1 ASW      -0.010400
     14 N14          4.2030     0.0010     0.1100 nu         1 ASW      -0.265000
     15 C15          5.5730     0.1260     0.1820 ca         1 ASW       0.054600
     16 C16          6.2010     1.3750     0.0010 ca         1 ASW      -0.148800
     17 C17          5.4460     2.5320    -0.2550 ca         1 ASW      -0.089500
     18 C18          6.0770     3.7250    -0.4250 ca         1 ASW      -0.093000
     19 C19          7.4670     3.8160    -0.3470 ca         1 ASW      -0.093000
     20 C20          8.2300     2.7180    -0.1010 ca         1 ASW      -0.144800
     21 C21          7.6150     1.4630     0.0810 ca         1 ASW       0.386600
     22 N22          8.3520     0.3790     0.3230 nb         1 ASW      -0.556000
     23 C23          7.8020    -0.8210     0.4980 ca         1 ASW       0.386600
     24 C24          8.6120    -1.9460     0.7520 ca         1 ASW      -0.144800
     25 C25          8.0380    -3.1670     0.9300 ca         1 ASW      -0.093000
     26 C26          6.6550    -3.3290     0.8660 ca         1 ASW      -0.093000
     27 C27          5.8390    -2.2680     0.6230 ca         1 ASW      -0.089500
     28 C28          6.3940    -0.9910     0.4400 ca         1 ASW      -0.148800
     29 H1          -0.3610     0.8860     0.5080 h1         1 ASW      -0.002633
     30 H2          -0.3610    -0.8830     0.5130 h1         1 ASW      -0.002633
     31 H3          -0.3610    -0.0030    -1.0210 h1         1 ASW      -0.002633
     32 H4           0.2120     0.0300     2.3180 ha         1 ASW       0.124000
     33 H5           0.1950     0.2350     4.7530 hn         1 ASW       0.346800
     34 H6           1.9880    -2.5340     5.1920 h1         1 ASW       0.067700
     35 H7           3.5630    -2.0400     5.8290 h1         1 ASW       0.067700
     36 H8           2.3090    -2.6310     6.9290 h1         1 ASW       0.067700
     37 H9           3.8040     0.0030     4.6450 ha         1 ASW       0.159000
     38 H10          5.1480     0.0080     2.5800 ha         1 ASW       0.126000
     39 H11          3.7580    -0.1340    -0.7760 hn         1 ASW       0.302800
     40 H12          4.3660     2.4740    -0.3170 ha         1 ASW       0.115500
     41 H13          5.4940     4.6160    -0.6230 ha         1 ASW       0.103000
     42 H14          7.9470     4.7770    -0.4860 ha         1 ASW       0.103000
     43 H15          9.3080     2.8080    -0.0440 ha         1 ASW       0.118000
     44 H16          9.6890    -1.8390     0.8060 ha         1 ASW       0.118000
     45 H17          8.6670    -4.0280     1.1240 ha         1 ASW       0.103000
     46 H18          6.2240    -4.3120     1.0110 ha         1 ASW       0.103000
     47 H19          4.7650    -2.4060     0.5760 ha         1 ASW       0.115500
@<TRIPOS>BOND
     1     1     2 1   
     2     1    29 1   
     3     1    30 1   
     4     1    31 1   
     5     2     3 1   
     6     3     4 ar  
     7     3    13 ar  
     8     4     5 ar  
     9     4    32 1   
    10     5     6 1   
    11     5    11 ar  
    12     6     7 1   
    13     6    33 1   
    14     7     8 1   
    15     7     9 2   
    16     7    10 2   
    17     8    34 1   
    18     8    35 1   
    19     8    36 1   
    20    11    12 ar  
    21    11    37 1   
    22    12    13 ar  
    23    12    38 1   
    24    13    14 1   
    25    14    15 1   
    26    14    39 1   
    27    15    16 ar  
    28    15    28 ar  
    29    16    17 ar  
    30    16    21 ar  
    31    17    18 ar  
    32    17    40 1   
    33    18    19 ar  
    34    18    41 1   
    35    19    20 ar  
    36    19    42 1   
    37    20    21 ar  
    38    20    43 1   
    39    21    22 ar  
    40    22    23 ar  
    41    23    24 ar  
    42    23    28 ar  
    43    24    25 ar  
    44    24    44 1   
    45    25    26 ar  
    46    25    45 1   
    47    26    27 ar  
    48    26    46 1   
    49    27    28 ar  
    50    27    47 1   
@<TRIPOS>SUBSTRUCTURE
     1 ASW         1 TEMP              0 ****  ****    0 ROOT
