@<TRIPOS>MOLECULE
molecule
   52    51     1     0     0
SMALL
bcc


@<TRIPOS>ATOM
      1 C9           0.0000     0.0000     0.0000 c3         1 ASY      -0.182400
      2 C8           1.5290     0.0000     0.0000 c3         1 ASY      -0.073400
      3 C7           2.0390     0.0000     1.4430 c3         1 ASY      -0.084400
      4 C6           3.5690    -0.0010     1.4430 c3         1 ASY      -0.082400
      5 C5           4.0790     0.0000     2.8860 c3         1 ASY      -0.081400
      6 C4           5.6090    -0.0010     2.8860 c3         1 ASY      -0.088400
      7 C3           6.1190    -0.0000     4.3280 c3         1 ASY      -0.063400
      8 C2           7.6480    -0.0010     4.3300 c3         1 ASY      -0.182400
      9 C1           8.1510    -0.0010     5.7500 c          1 ASY       0.891600
     10 O2           7.3650     0.0000     6.6680 o          1 ASY      -0.858300
     11 O1           9.4710    -0.0010     5.9950 o          1 ASY      -0.858300
     12 C10         -0.5030    -0.0000    -1.4210 c          1 ASY       0.562100
     13 O10          0.2820    -0.0010    -2.3390 o          1 ASY      -0.520100
     14 C11         -1.9840     0.0000    -1.6970 c3         1 ASY      -0.151200
     15 C12         -2.2180     0.0000    -3.1850 c2         1 ASY      -0.156200
     16 C13         -2.9620    -0.9300    -3.7310 c2         1 ASY      -0.178200
     17 C14         -3.1970    -0.9300    -5.2200 c3         1 ASY      -0.045200
     18 C15         -2.7890    -2.2860    -5.8000 c3         1 ASY      -0.078400
     19 C16         -3.0270    -2.2860    -7.3120 c3         1 ASY      -0.082400
     20 C17         -2.6180    -3.6420    -7.8910 c3         1 ASY      -0.084400
     21 C18         -2.8560    -3.6420    -9.4020 c3         1 ASY      -0.092100
     22 H9          -0.3610     0.8850     0.5110 hc         1 ASY       0.062700
     23 H9A         -0.3610    -0.8840     0.5110 hc         1 ASY       0.062700
     24 H8           1.8900     0.8850    -0.5110 hc         1 ASY       0.053200
     25 H8A          1.8900    -0.8850    -0.5110 hc         1 ASY       0.053200
     26 H7           1.6780    -0.8840     1.9540 hc         1 ASY       0.037700
     27 H7A          1.6780     0.8850     1.9540 hc         1 ASY       0.037700
     28 H6           3.9300     0.8830     0.9310 hc         1 ASY       0.038700
     29 H6A          3.9300    -0.8860     0.9330 hc         1 ASY       0.038700
     30 H5           3.7170    -0.8830     3.3970 hc         1 ASY       0.037700
     31 H5A          3.7190     0.8850     3.3960 hc         1 ASY       0.037700
     32 H4           5.9710     0.8830     2.3750 hc         1 ASY       0.029700
     33 H4A          5.9700    -0.8860     2.3760 hc         1 ASY       0.029700
     34 H3           5.7580     0.8850     4.8380 hc         1 ASY       0.044700
     35 H3A          5.7570    -0.8840     4.8400 hc         1 ASY       0.044700
     36 H2           8.0090    -0.8860     3.8190 hc         1 ASY       0.026700
     37 H2A          8.0100     0.8830     3.8190 hc         1 ASY       0.026700
     38 H11         -2.4330    -0.8840    -1.2600 hc         1 ASY       0.066700
     39 H11A        -2.4320     0.8850    -1.2610 hc         1 ASY       0.066700
     40 H12         -1.7710     0.7690    -3.8040 ha         1 ASY       0.138000
     41 H13         -3.4090    -1.6980    -3.1130 ha         1 ASY       0.120000
     42 H14         -2.6040    -0.1480    -5.6790 hc         1 ASY       0.045200
     43 H14A        -4.2460    -0.7520    -5.4200 hc         1 ASY       0.045200
     44 H15         -3.3820    -3.0680    -5.3420 hc         1 ASY       0.045700
     45 H15A        -1.7390    -2.4640    -5.5990 hc         1 ASY       0.045700
     46 H16         -4.0760    -2.1080    -7.5120 hc         1 ASY       0.040200
     47 H16A        -2.4340    -1.5030    -7.7700 hc         1 ASY       0.040200
     48 H17         -3.2110    -4.4240    -7.4320 hc         1 ASY       0.041200
     49 H17A        -1.5680    -3.8190    -7.6910 hc         1 ASY       0.041200
     50 H18         -2.2640    -2.8600    -9.8610 hc         1 ASY       0.031033
     51 H18A        -3.9060    -3.4650    -9.6030 hc         1 ASY       0.031033
     52 H18B        -2.5670    -4.6020    -9.8130 hc         1 ASY       0.031033
@<TRIPOS>BOND
     1     2     1 1
     2    12     1 1
     3     1    22 1
     4     1    23 1
     5     2     3 1
     6     2    24 1
     7     2    25 1
     8     4     3 1
     9     3    26 1
    10     3    27 1
    11     4     5 1
    12     4    28 1
    13     4    29 1
    14     6     5 1
    15     5    30 1
    16     5    31 1
    17     6     7 1
    18     6    32 1
    19     6    33 1
    20     8     7 1
    21     7    34 1
    22     7    35 1
    23     8     9 1
    24     8    36 1
    25     8    37 1
    26    10     9 1
    27     9    11 1
    28    14    12 1
    29    12    13 2
    30    15    14 1
    31    14    38 1
    32    14    39 1
    33    16    15 2
    34    15    40 1
    35    17    16 1
    36    16    41 1
    37    18    17 1
    38    17    42 1
    39    17    43 1
    40    19    18 1
    41    18    44 1
    42    18    45 1
    43    20    19 1
    44    19    46 1
    45    19    47 1
    46    21    20 1
    47    20    48 1
    48    20    49 1
    49    21    50 1
    50    21    51 1
    51    21    52 1
@<TRIPOS>SUBSTRUCTURE
     1 ASY         1 TEMP              0 ****  ****    0 ROOT
