@<TRIPOS>MOLECULE
ASY
   52    51     1     0     0
SMALL
bcc


@<TRIPOS>ATOM
      1 C9         -0.0130    2.1860   -0.8270 c3        1 ASY     -0.182400
      2 C8          1.3930    1.6210   -0.7730 c3        1 ASY     -0.070400
      3 C7          1.7290    1.1430    0.6240 c3        1 ASY     -0.079400
      4 C6          3.1180    0.5430    0.6790 c3        1 ASY     -0.079400
      5 C5          3.4340    0.0140    2.0620 c3        1 ASY     -0.078400
      6 C4          4.8140   -0.6070    2.1150 c3        1 ASY     -0.078400
      7 C3          5.1170   -1.1630    3.4910 c3        1 ASY     -0.065400
      8 C2          6.4810   -1.8060    3.5500 c3        1 ASY     -0.194400
      9 C1          6.8420   -2.2180    4.9890 c         1 ASY      0.907600
     10 O2          6.6440   -1.3880    5.9220 o         1 ASY     -0.852800
     11 O1          7.3390   -3.3680    5.1630 o         1 ASY     -0.852800
     12 C10        -0.3790    2.6040   -2.2230 c         1 ASY      0.572100
     13 O10        -0.3200    3.7800   -2.5980 o         1 ASY     -0.537100
     14 C11        -0.8180    1.5050   -3.1550 c3        1 ASY     -0.155200
     15 C12        -2.1080    0.9020   -2.7440 c2        1 ASY     -0.170200
     16 C13        -2.5590   -0.2690   -3.2080 c2        1 ASY     -0.163200
     17 C14        -1.8170   -1.1200   -4.1680 c3        1 ASY     -0.052200
     18 C15        -2.6540   -2.2780   -4.6720 c3        1 ASY     -0.076400
     19 C16        -1.8750   -3.1280   -5.6530 c3        1 ASY     -0.080400
     20 C17        -2.7070   -4.2870   -6.1590 c3        1 ASY     -0.079400
     21 C18        -1.9360   -5.1360   -7.1360 c3        1 ASY     -0.092100
     22 H9         -0.7470    1.4130   -0.4750 hc        1 ASY      0.066200
     23 H9A        -0.0870    3.0710   -0.1410 hc        1 ASY      0.066200
     24 H8          1.4870    0.7670   -1.4930 hc        1 ASY      0.043700
     25 H8A         2.1260    2.4090   -1.0890 hc        1 ASY      0.043700
     26 H7          0.9760    0.3770    0.9500 hc        1 ASY      0.040700
     27 H7A         1.6610    2.0010    1.3430 hc        1 ASY      0.040700
     28 H6          3.1970   -0.2900   -0.0680 hc        1 ASY      0.035700
     29 H6A         3.8740    1.3190    0.3900 hc        1 ASY      0.035700
     30 H5          3.3710    0.8490    2.8080 hc        1 ASY      0.037200
     31 H5A         2.6680   -0.7510    2.3560 hc        1 ASY      0.037200
     32 H4          4.8860   -1.4270    1.3540 hc        1 ASY      0.026700
     33 H4A         5.5830    0.1640    1.8440 hc        1 ASY      0.026700
     34 H3          4.3370   -1.9190    3.7690 hc        1 ASY      0.043700
     35 H3A         5.0730   -0.3440    4.2580 hc        1 ASY      0.043700
     36 H2          7.2600   -1.0850    3.1950 hc        1 ASY      0.018700
     37 H2A         6.5170   -2.7060    2.8870 hc        1 ASY      0.018700
     38 H11        -0.9180    1.9170   -4.1980 hc        1 ASY      0.073700
     39 H11A       -0.0120    0.7200   -3.1800 hc        1 ASY      0.073700
     40 H12        -2.7080    1.4860   -2.0270 ha        1 ASY      0.126000
     41 H13        -3.5340   -0.6580   -2.8720 ha        1 ASY      0.124000
     42 H14        -1.4750   -0.4970   -5.0390 hc        1 ASY      0.050700
     43 H14A       -0.8900   -1.5170   -3.6700 hc        1 ASY      0.050700
     44 H15        -2.9830   -2.9100   -3.8050 hc        1 ASY      0.041200
     45 H15A       -3.5810   -1.8850   -5.1660 hc        1 ASY      0.041200
     46 H16        -1.5450   -2.4960   -6.5190 hc        1 ASY      0.041200
     47 H16A       -0.9480   -3.5200   -5.1570 hc        1 ASY      0.041200
     48 H17        -3.6350   -3.8930   -6.6510 hc        1 ASY      0.037700
     49 H17A       -3.0360   -4.9170   -5.2900 hc        1 ASY      0.037700
     50 H18        -2.5670   -5.9840   -7.4960 hc        1 ASY      0.032700
     51 H18A       -1.6200   -4.5310   -8.0200 hc        1 ASY      0.032700
     52 H18B       -1.0200   -5.5560   -6.6550 hc        1 ASY      0.032700
@<TRIPOS>BOND
     1    1    2 1   
     2    1   12 1   
     3    1   22 1   
     4    1   23 1   
     5    2    3 1   
     6    2   24 1   
     7    2   25 1   
     8    3    4 1   
     9    3   26 1   
    10    3   27 1   
    11    4    5 1   
    12    4   28 1   
    13    4   29 1   
    14    5    6 1   
    15    5   30 1   
    16    5   31 1   
    17    6    7 1   
    18    6   32 1   
    19    6   33 1   
    20    7    8 1   
    21    7   34 1   
    22    7   35 1   
    23    8    9 1   
    24    8   36 1   
    25    8   37 1   
    26    9   10 1   
    27    9   11 1   
    28   12   13 2   
    29   12   14 1   
    30   14   15 1   
    31   14   38 1   
    32   14   39 1   
    33   15   16 2   
    34   15   40 1   
    35   16   17 1   
    36   16   41 1   
    37   17   18 1   
    38   17   42 1   
    39   17   43 1   
    40   18   19 1   
    41   18   44 1   
    42   18   45 1   
    43   19   20 1   
    44   19   46 1   
    45   19   47 1   
    46   20   21 1   
    47   20   48 1   
    48   20   49 1   
    49   21   50 1   
    50   21   51 1   
    51   21   52 1   
@<TRIPOS>SUBSTRUCTURE
     1 ASY         1 TEMP              0 ****  ****    0 ROOT
