@<TRIPOS>MOLECULE
molecule
   19    18     1     0     0
SMALL
bcc


@<TRIPOS>ATOM
      1 OAC          0.0000     0.0000     0.0000 o          1 ASZ      -0.709200
      2 SAI          1.4210     0.0000     0.0000 s6         1 ASZ       1.254800
      3 OAE          2.1530     0.0000     1.2180 o          1 ASZ      -0.709200
      4 OAD          1.7960    -1.3180    -0.6630 o          1 ASZ      -0.709200
      5 CAG          2.0590     1.2710    -1.1260 c3         1 ASZ      -0.255600
      6 CAF          1.7400     2.6570    -0.5630 c3         1 ASZ       0.185800
      7 NAH          2.2560     3.6870    -1.4760 n3         1 ASZ      -0.728600
      8 CAB          1.5420     3.6580    -2.7590 c3         1 ASZ       0.153600
      9 CAA          2.1820     5.0190    -0.8620 c3         1 ASZ       0.153600
     10 HAG1         3.1320     1.1590    -1.2250 h1         1 ASZ       0.079200
     11 HAG2         1.5930     1.1590    -2.0980 h1         1 ASZ       0.079200
     12 HAF1         0.6670     2.7680    -0.4640 h1         1 ASZ       0.034700
     13 HAF2         2.2060     2.7690     0.4080 h1         1 ASZ       0.034700
     14 HAB1         1.6310     4.6230    -3.2430 h1         1 ASZ       0.022700
     15 HAB2         0.4960     3.4370    -2.5860 h1         1 ASZ       0.022700
     16 HAB3         1.9730     2.8940    -3.3950 h1         1 ASZ       0.022700
     17 HAA1         2.7060     5.0100     0.0860 h1         1 ASZ       0.022700
     18 HAA2         2.6400     5.7470    -1.5210 h1         1 ASZ       0.022700
     19 HAA3         1.1440     5.2840    -0.6980 h1         1 ASZ       0.022700
@<TRIPOS>BOND
     1     1     2 1
     2     2     3 1
     3     2     4 1
     4     2     5 1
     5     5     6 1
     6     6     7 1
     7     7     8 1
     8     7     9 1
     9     5    10 1
    10     5    11 1
    11     6    12 1
    12     6    13 1
    13     8    14 1
    14     8    15 1
    15     8    16 1
    16     9    17 1
    17     9    18 1
    18     9    19 1
@<TRIPOS>SUBSTRUCTURE
     1 ASZ         1 TEMP              0 ****  ****    0 ROOT
