@<TRIPOS>MOLECULE
AT1
   38    35     1     0     0
SMALL
bcc


@<TRIPOS>ATOM
      1 N         799.7510 -236.1020  740.4290 n3        1 AT1     -0.326000
      2 C        -983.7060  295.7830 -919.7270 c1        1 AT1     -0.055000
      3 O         799.3320 -239.5760  741.5690 o         1 AT1     -0.596000
      4 C1        800.1200 -237.3560  741.0510 c3        1 AT1     -0.161000
      5 C2        799.0470 -238.4620  741.0370 c2        1 AT1      0.298000
      6 O1        797.9230 -238.2270  740.4990 o         1 AT1     -0.596000
      7 O2       -984.8160  297.2990 -922.8320 os        1 AT1     -0.051000
      8 N1       -983.6060  297.8650 -922.7400 n2        1 AT1     -0.123000
      9 C4       -981.2300  297.2480 -920.0560 c3        1 AT1     -0.637000
     10 C5       -983.0190  297.3990 -921.5970 c2        1 AT1      0.132000
     11 C6       -983.9430  296.4570 -920.9140 c2        1 AT1     -0.299000
     12 C7       -985.0590  296.4590 -921.7750 c2        1 AT1      0.009000
     13 P        -979.6900  298.0610 -919.8850 p5        1 AT1      1.962000
     14 O4       -978.8030  297.1210 -919.1700 o         1 AT1     -0.845500
     15 O5       -979.2070  298.1780 -921.4450 oh        1 AT1     -0.814000
     16 O6       -979.9350  299.4670 -919.4950 o         1 AT1     -0.845500
     17 H2        799.4890 -236.2870  739.4760 hn        1 AT1      0.124000
     18 H3        798.9210 -235.7570  740.8810 hn        1 AT1      0.124000
     19 H5        800.3950 -237.1540  742.1220 h1        1 AT1      0.074500
     20 H6       -984.5160  295.1280 -919.3650 ha        1 AT1      0.027000
     21 H4        801.0340 -237.7540  740.5320 h1        1 AT1      0.074500
     22 H7       -981.1230  296.1420 -920.1640 h1        1 AT1      0.118000
     23 H8       -981.9010  297.4400 -919.1850 h1        1 AT1      0.118000
     24 H11       798.4640 -241.0350  742.9830 hc        1 AT1      0.095333
     25 H12       797.9470 -242.7820  743.0450 hc        1 AT1      0.095333
     26 H13       797.4050 -241.6360  744.3430 hc        1 AT1      0.095333
     27 H14       794.7280 -240.8060  740.1030 ha        1 AT1      0.010500
     28 H15       794.7940 -240.1560  740.2940 ha        1 AT1      0.010500
     29 H16       797.1550 -240.1960  740.7480 ha        1 AT1      0.190000
     30 H17      -986.0240  295.9570 -921.7720 h4        1 AT1      0.185000
     31 H18       794.2790 -241.1990  742.4040 ha        1 AT1      0.093500
     32 H19       795.0070 -241.7200  744.0270 ha        1 AT1      0.093500
     33 C3        796.4100 -241.3990  742.4470 c2        1 AT1     -0.095000
     34 HN3      -979.4800  298.9980 -921.8380 ho        1 AT1      0.225000
     35 O3       -981.7850  297.8070 -921.2440 os        1 AT1     -0.106000
     36 C9        797.6260 -241.7330  743.2530 c3        1 AT1     -0.193000
     37 C10       796.7170 -241.1480  741.0910 c1        1 AT1     -0.058000
     38 C11       795.1750 -241.4500  742.9800 c2        1 AT1     -0.353000
@<TRIPOS>BOND
     1    1    4 1   
     2    1   17 1   
     3    1   18 1   
     4    2   11 1   
     5    2   20 1   
     6    3    5 1   
     7    4    5 1   
     8    4   19 1   
     9    4   21 1   
    10    5    6 1   
    11    7    8 1   
    12    7   12 1   
    13    8   10 1   
    14    9   13 1   
    15    9   22 1   
    16    9   23 1   
    17    9   35 1   
    18   10   11 1   
    19   10   35 1   
    20   11   12 1   
    21   12   30 1   
    22   13   14 1   
    23   13   15 1   
    24   13   16 1   
    25   15   34 1   
    26   24   36 1   
    27   25   36 1   
    28   26   36 1   
    29   27   28 1   
    30   29   37 1   
    31   31   38 1   
    32   32   38 1   
    33   33   36 1   
    34   33   37 1   
    35   33   38 1   
@<TRIPOS>SUBSTRUCTURE
     1 AT1         1 TEMP              0 ****  ****    0 ROOT
