@<TRIPOS>MOLECULE
molecule
   40    41     1     0     0
SMALL
bcc


@<TRIPOS>ATOM
      1 C1           0.0000     0.0000     0.0000 c3         1 AT2      -0.050800
      2 C2           1.5070     0.0000     0.0000 ca         1 AT2      -0.007300
      3 C3           2.2170     0.0000     1.1930 ca         1 AT2      -0.316300
      4 C4           3.5970    -0.0000     1.1590 ca         1 AT2       0.471200
      5 C6           3.6050    -0.0000    -1.1490 ca         1 AT2       0.706200
      6 C7           2.2140     0.0000    -1.1890 ca         1 AT2      -0.329300
      7 C9           3.6260     0.0010    -3.6220 c3         1 AT2       0.245500
      8 C10          3.2690    -1.4370    -4.0090 c3         1 AT2      -0.117900
      9 C11          2.4990    -1.4270    -5.3380 c3         1 AT2       0.117500
     10 N5           4.2460    -0.0050     0.0090 nb         1 AT2      -0.767000
     11 N8           4.3280     0.0000    -2.3360 nu         1 AT2      -0.917900
     12 N12          3.3050    -0.7150    -6.3400 n          1 AT2      -0.483800
     13 C13          3.7780     0.6420    -6.0320 c3         1 AT2       0.117500
     14 C14          4.5280     0.6110    -4.6970 c3         1 AT2      -0.117900
     15 C15          3.6010    -1.2940    -7.5200 c          1 AT2       0.762100
     16 O16          4.2650    -0.6930    -8.3420 o          1 AT2      -0.615000
     17 O17          3.1620    -2.5370    -7.7900 os         1 AT2      -0.455900
     18 C18          3.4800    -3.1610    -9.0620 c3         1 AT2       0.172400
     19 C19          2.8650    -4.5610    -9.1110 c3         1 AT2      -0.098100
     20 H11         -0.3610     0.2350     0.9940 hc         1 AT2       0.046700
     21 H12         -0.3610     0.7430    -0.7010 hc         1 AT2       0.046700
     22 H13         -0.3610    -0.9780    -0.2930 hc         1 AT2       0.046700
     23 H3           1.6940     0.0040     2.1420 ha         1 AT2       0.136000
     24 H4           4.1550    -0.0030     2.0870 h4         1 AT2       0.020100
     25 H7           1.6920     0.0040    -2.1380 ha         1 AT2       0.136000
     26 H9           2.7180     0.5860    -3.5420 h1         1 AT2       0.059700
     27 H101         2.6490    -1.8750    -3.2370 hc         1 AT2       0.061450
     28 H102         4.1770    -2.0150    -4.1230 hc         1 AT2       0.061450
     29 H111         1.5520    -0.9170    -5.2060 h1         1 AT2       0.063450
     30 H112         2.3280    -2.4450    -5.6660 h1         1 AT2       0.063450
     31 HN8          5.3280     0.0140    -2.3120 hn         1 AT2       0.450800
     32 H131         2.9310     1.3120    -5.9560 h1         1 AT2       0.063450
     33 H132         4.4460     0.9790    -6.8150 h1         1 AT2       0.063450
     34 H141         5.4230     0.0090    -4.8000 hc         1 AT2       0.061450
     35 H142         4.7970     1.6210    -4.4110 hc         1 AT2       0.061450
     36 H181         4.5560    -3.2360    -9.1680 h1         1 AT2       0.048700
     37 H182         3.0780    -2.5610    -9.8690 h1         1 AT2       0.048700
     38 H191         3.2700    -5.1620    -8.3060 hc         1 AT2       0.048033
     39 H192         1.7900    -4.4870    -9.0020 hc         1 AT2       0.048033
     40 H193         3.1000    -5.0250   -10.0620 hc         1 AT2       0.048033
@<TRIPOS>BOND
     1     1     2 1
     2     1    20 1
     3     1    21 1
     4     1    22 1
     5     2     3 ar
     6     2     6 ar
     7     3     4 ar
     8     3    23 1
     9     4    10 ar
    10     4    24 1
    11     5     6 ar
    12     5    10 ar
    13     5    11 1
    14     6    25 1
    15     7     8 1
    16     7    11 1
    17     7    14 1
    18     7    26 1
    19     8     9 1
    20     8    27 1
    21     8    28 1
    22     9    12 1
    23     9    29 1
    24     9    30 1
    25    11    31 1
    26    12    13 1
    27    12    15 1
    28    13    14 1
    29    13    32 1
    30    13    33 1
    31    14    34 1
    32    14    35 1
    33    15    16 2
    34    15    17 1
    35    17    18 1
    36    18    19 1
    37    18    36 1
    38    18    37 1
    39    19    38 1
    40    19    39 1
    41    19    40 1
@<TRIPOS>SUBSTRUCTURE
     1 AT2         1 TEMP              0 ****  ****    0 ROOT
