@<TRIPOS>MOLECULE
AT3
   26    25     1     0     0
SMALL
bcc


@<TRIPOS>ATOM
      1 N1           0.0000     0.0000     0.0000 n4         1 AT3       0.047200
      2 C2           1.4700     0.0000     0.0000 c3         1 AT3       0.010800
      3 C3           1.9800     0.0000     1.4430 c3         1 AT3       0.018700
      4 C5           4.0870     0.0000     3.1280 c          1 AT3       0.650700
      5 O7           3.1590     0.0000     3.9080 o          1 AT3      -0.550100
      6 C6           5.5040     0.0000     3.6430 c3         1 AT3      -0.055100
      7 C8          -0.4890     1.1990     0.6930 c3         1 AT3       0.013433
      8 C9          -0.4900     0.0000    -1.3840 c3         1 AT3       0.013433
      9 C10         -0.4890    -1.1990     0.6920 c3         1 AT3       0.013433
     10 S24          3.7890    -0.0000     1.4420 ss         1 AT3      -0.281700
     11 H2C1         1.8310     0.8840    -0.5110 hx         1 AT3       0.088700
     12 H2C2         1.8310    -0.8840    -0.5110 hx         1 AT3       0.088700
     13 H3C1         1.6190    -0.8850     1.9530 h1         1 AT3       0.068700
     14 H3C2         1.6190     0.8850     1.9530 h1         1 AT3       0.068700
     15 H6C1         5.5510    -0.5560     4.5710 hc         1 AT3       0.043367
     16 H6C2         6.1540    -0.4640     2.9110 hc         1 AT3       0.043367
     17 H6C3         5.8250     1.0200     3.8170 hc         1 AT3       0.043367
     18 H8C1        -1.5020     1.4130     0.3740 hx         1 AT3       0.075144
     19 H8C2         0.1500     2.0400     0.4540 hx         1 AT3       0.075144
     20 H8C3        -0.4750     1.0280     1.7630 hx         1 AT3       0.075144
     21 H9C1        -1.5730    -0.0000    -1.3840 hx         1 AT3       0.075144
     22 H9C2        -0.1290     0.8850    -1.8950 hx         1 AT3       0.075144
     23 H9C3        -0.1280    -0.8840    -1.8950 hx         1 AT3       0.075144
     24 H103        -1.5030    -1.4110     0.3740 hx         1 AT3       0.075144
     25 H101         0.1480    -2.0410     0.4510 hx         1 AT3       0.075144
     26 H102        -0.4750    -1.0300     1.7620 hx         1 AT3       0.075144
@<TRIPOS>BOND
     1     1     2 1   
     2     1     7 1   
     3     1     8 1   
     4     1     9 1   
     5     2     3 1   
     6     2    11 1   
     7     2    12 1   
     8     3    10 1   
     9     3    13 1   
    10     3    14 1   
    11     4     5 2   
    12     4     6 1   
    13     4    10 1   
    14     6    15 1   
    15     6    16 1   
    16     6    17 1   
    17     7    18 1   
    18     7    19 1   
    19     7    20 1   
    20     8    21 1   
    21     8    22 1   
    22     8    23 1   
    23     9    24 1   
    24     9    25 1   
    25     9    26 1   
@<TRIPOS>SUBSTRUCTURE
     1 AT3         1 TEMP              0 ****  ****    0 ROOT
