@<TRIPOS>MOLECULE
AT4
   40    42     1     0     0
SMALL
bcc


@<TRIPOS>ATOM
      1 O5'          0.0000     0.0000     0.0000 os         1 AT4      -0.475200
      2 C5'          1.4170     0.0000     0.0000 c3         1 AT4       0.276400
      3 C4'          1.9050     0.0000     1.4420 c3         1 AT4       0.130100
      4 O4'          1.4380    -1.2100     2.0800 os         1 AT4      -0.372600
      5 C3'          3.4260    -0.0120     1.5540 c3         1 AT4       0.129100
      6 O3'          3.7990     0.5800     2.7990 oh         1 AT4      -0.574800
      7 C2'          3.7360    -1.4950     1.5860 c3         1 AT4       0.131100
      8 C1'          2.5750    -2.0300     2.4120 c3         1 AT4       0.142800
      9 N1           3.2990    -6.9420     3.8290 nb         1 AT4      -0.768000
     10 C2           3.7870    -5.7800     4.3260 ca         1 AT4       0.653900
     11 N3           3.5570    -4.5170     3.9060 nb         1 AT4      -0.656000
     12 C4           2.7250    -4.5170     2.8550 ca         1 AT4       0.259800
     13 C5           2.1480    -5.6170     2.2410 ca         1 AT4      -0.222200
     14 C6           2.4630    -6.8670     2.7660 ca         1 AT4       0.583200
     15 N6           1.9240    -8.0370     2.2060 nv         1 AT4      -0.512500
     16 N7           1.3520    -5.2270     1.1940 nc         1 AT4      -0.513100
     17 C8           1.4400    -3.9140     1.1720 cd         1 AT4       0.307700
     18 N9           2.2620    -3.4350     2.1590 na         1 AT4       0.197000
     19 O2'          4.9840    -1.7870     2.1810 oh         1 AT4      -0.559800
     20 PA          -0.8090     0.0000    -1.4020 p5         1 AT4       0.907800
     21 O2A         -2.3050     0.0000    -1.2770 o          1 AT4      -0.645000
     22 O1A         -0.2090     1.2610    -2.2210 o          1 AT4      -0.645000
     23 O3A         -0.1990    -1.2810    -2.1770 os         1 AT4      -0.486800
     24 PB          -0.4300    -1.8360    -3.6810 p5         1 AT4       0.651800
     25 O1B         -1.8660    -2.1870    -3.9700 o          1 AT4      -0.577500
     26 O2B          0.0850    -0.5870    -4.5800 o          1 AT4      -0.577500
     27 S3B          0.8280    -3.4810    -4.0050 sh         1 AT4      -0.449200
     28 H5'1         1.7810     0.8850    -0.5070 h1         1 AT4      -0.004300
     29 H5'2         1.7810    -0.8850    -0.5070 h1         1 AT4      -0.004300
     30 H4'          1.5090     0.8620     1.9660 h1         1 AT4       0.041700
     31 H3'          3.8940     0.4780     0.7090 h1         1 AT4       0.026700
     32 HO3'         4.2480     1.3930     2.6390 ho         1 AT4       0.378000
     33 H2'          3.6930    -1.9020     0.5830 h1         1 AT4       0.036700
     34 H1'          2.8050    -1.9000     3.4620 h2         1 AT4       0.058700
     35 HN61         1.4390    -7.9960     1.3310 hn         1 AT4       0.272800
     36 HN62         2.0370    -8.9140     2.6740 hn         1 AT4       0.272800
     37 H8           0.9240    -3.2860     0.4570 h5         1 AT4       0.078800
     38 HO2'         5.6350    -1.8990     1.5080 ho         1 AT4       0.382000
     39 HS3B         0.2550    -4.3140    -4.8660 hs         1 AT4       0.160800
     40 H2           4.4520    -5.8770     5.1750 h5         1 AT4      -0.034900
@<TRIPOS>BOND
     1     1     2 1   
     2     1    20 1   
     3     2     3 1   
     4     2    28 1   
     5     2    29 1   
     6     3     4 1   
     7     3     5 1   
     8     3    30 1   
     9     4     8 1   
    10     5     6 1   
    11     5     7 1   
    12     5    31 1   
    13     6    32 1   
    14     7     8 1   
    15     7    19 1   
    16     7    33 1   
    17     8    18 1   
    18     8    34 1   
    19     9    10 ar  
    20     9    14 ar  
    21    10    11 ar  
    22    10    40 1   
    23    11    12 ar  
    24    12    13 ar  
    25    12    18 1   
    26    13    14 ar  
    27    13    16 1   
    28    14    15 1   
    29    15    35 1   
    30    15    36 1   
    31    16    17 2   
    32    17    18 1   
    33    17    37 1   
    34    19    38 1   
    35    20    21 1   
    36    20    22 1   
    37    20    23 1   
    38    23    24 1   
    39    24    25 1   
    40    24    26 1   
    41    24    27 1   
    42    27    39 1   
@<TRIPOS>SUBSTRUCTURE
     1 AT4         1 TEMP              0 ****  ****    0 ROOT
