@<TRIPOS>MOLECULE
AT5
   44    44     1     0     0
SMALL
bcc


@<TRIPOS>ATOM
      1 O5         -0.0410    0.6400    0.0780 o         1 AT5     -0.596100
      2 C7          1.1940    0.4840    0.1160 c         1 AT5      0.622300
      3 C8          1.8980    0.4270    1.4570 c3        1 AT5     -0.144700
      4 C11         1.0660   -0.4130    2.4210 c3        1 AT5     -0.073400
      5 C12         1.8810   -0.9120    3.6080 c3        1 AT5     -0.067700
      6 C17         2.7160   -2.1170    3.2320 c3        1 AT5     -0.098100
      7 C13         0.9680   -1.1890    4.8020 c3        1 AT5      0.045700
      8 CL12       -0.2140   -2.4580    4.4550 cl        1 AT5     -0.182400
      9 C14         1.7810   -1.5550    6.0280 c3        1 AT5      0.023000
     10 CL16        0.8460   -1.4270    7.5040 cl        1 AT5     -0.177400
     11 C10         2.0880    1.8420    1.9710 c3        1 AT5     -0.086100
     12 C6          1.9580    0.3160   -1.1240 cc        1 AT5     -0.437400
     13 C5          3.3900    0.5720   -1.1310 c         1 AT5      0.740700
     14 N4          4.1110    0.3000   -2.3250 n         1 AT5     -0.479100
     15 C3          3.4840   -0.1340   -3.4660 cc        1 AT5      0.278700
     16 C2          2.0980   -0.2910   -3.5110 cd        1 AT5     -0.087900
     17 C1          1.3340   -0.0670   -2.3150 cd        1 AT5      0.317100
     18 O1          0.0110   -0.3000   -2.4770 oh        1 AT5     -0.475100
     19 O2          1.4770   -0.5410   -4.7150 os        1 AT5     -0.288900
     20 CM2         1.0530   -1.8990   -4.8690 c3        1 AT5      0.107700
     21 O3          4.1800   -0.4610   -4.6080 os        1 AT5     -0.297900
     22 CM3         5.5020    0.0560   -4.7600 c3        1 AT5      0.098700
     23 O4          4.0860    1.0240   -0.2010 o         1 AT5     -0.641500
     24 H8          2.9080   -0.0550    1.3330 hc        1 AT5      0.084700
     25 H111        0.2000    0.2040    2.7790 hc        1 AT5      0.059700
     26 H112        0.6350   -1.2940    1.8750 hc        1 AT5      0.059700
     27 H12         2.5800   -0.0860    3.9310 hc        1 AT5      0.059700
     28 H171        3.3740   -2.4170    4.0840 hc        1 AT5      0.042367
     29 H172        3.3660   -1.8770    2.3560 hc        1 AT5      0.042367
     30 H173        2.0670   -2.9840    2.9610 hc        1 AT5      0.042367
     31 H13         0.3460   -0.2760    5.0070 h1        1 AT5      0.088700
     32 H141        2.6440   -0.8530    6.1380 h1        1 AT5      0.077200
     33 H142        2.1540   -2.6060    5.9740 h1        1 AT5      0.077200
     34 H101        2.5320    1.8240    2.9940 hc        1 AT5      0.046367
     35 H102        1.1080    2.3760    2.0150 hc        1 AT5      0.046367
     36 H103        2.7810    2.4000    1.2940 hc        1 AT5      0.046367
     37 HN4         5.0960    0.4590   -2.3170 hn        1 AT5      0.338500
     38 HO1        -0.4930   -0.0570   -1.6770 ho        1 AT5      0.478000
     39 HM21        0.5630   -1.9060   -5.8740 h1        1 AT5      0.043700
     40 HM22        1.9340   -2.5840   -4.8500 h1        1 AT5      0.043700
     41 HM23        0.3250   -2.1690   -4.0660 h1        1 AT5      0.043700
     42 HM31        6.2050   -0.4560   -4.0590 h1        1 AT5      0.059367
     43 HM32        5.5230    1.1630   -4.6180 h1        1 AT5      0.059367
     44 HM33        5.7500   -0.2090   -5.8210 h1        1 AT5      0.059367
@<TRIPOS>BOND
     1    1    2 2   
     2    2    3 1   
     3    2   12 1   
     4    3    4 1   
     5    3   11 1   
     6    3   24 1   
     7    4    5 1   
     8    4   25 1   
     9    4   26 1   
    10    5    6 1   
    11    5    7 1   
    12    5   27 1   
    13    6   28 1   
    14    6   29 1   
    15    6   30 1   
    16    7    8 1   
    17    7    9 1   
    18    7   31 1   
    19    9   10 1   
    20    9   32 1   
    21    9   33 1   
    22   11   34 1   
    23   11   35 1   
    24   11   36 1   
    25   12   13 1   
    26   12   17 2   
    27   13   14 1   
    28   13   23 2   
    29   14   15 1   
    30   14   37 1   
    31   15   16 2   
    32   15   21 1   
    33   16   17 1   
    34   16   19 1   
    35   17   18 1   
    36   18   38 1   
    37   19   20 1   
    38   20   39 1   
    39   20   40 1   
    40   20   41 1   
    41   21   22 1   
    42   22   42 1   
    43   22   43 1   
    44   22   44 1   
@<TRIPOS>SUBSTRUCTURE
     1 AT5         1 TEMP              0 ****  ****    0 ROOT
