@<TRIPOS>MOLECULE
molecule
   37    38     1     0     0
SMALL
bcc


@<TRIPOS>ATOM
      1 C2           0.0000     0.0000     0.0000 ca         1 AT6      -0.062300
      2 C1           1.3830     0.0000     0.0000 ca         1 AT6      -0.284300
      3 C6           2.0600     0.0000     1.2150 ca         1 AT6       0.725200
      4 N5           1.3920    -0.0020     2.3590 nb         1 AT6      -0.719000
      5 C4           0.0720    -0.0030     2.3880 ca         1 AT6       0.523600
      6 C3          -0.6630     0.0030     1.2200 ca         1 AT6      -0.268300
      7 C10         -0.6410    -0.0040     3.7160 c3         1 AT6      -0.289700
      8 C11         -0.1530    -1.1850     4.5560 c3         1 AT6      -0.513000
      9 N12         -0.8470    -1.1860     5.8470 ns         1 AT6      -0.429900
     10 C24         -0.5760    -2.1420     6.7570 c          1 AT6       0.579700
     11 O25          0.2440    -3.0040     6.5080 o          1 AT6      -0.534100
     12 C26         -1.2760    -2.1430     8.0600 ca         1 AT6      -0.129600
     13 C27         -2.2140    -1.1500     8.3490 ca         1 AT6      -0.089500
     14 C28         -2.8700    -1.1530     9.5590 ca         1 AT6      -0.099500
     15 C29         -2.5890    -2.1440    10.5030 ca         1 AT6       0.010000
     16 C30         -1.6470    -3.1340    10.2160 ca         1 AT6      -0.099500
     17 C31         -0.9950    -3.1330     9.0030 ca         1 AT6      -0.089500
     18 C32         -3.2680    -2.1450    11.7640 cg         1 AT6       0.225800
     19 N33         -3.8130    -2.1280    12.7610 n1         1 AT6      -0.337800
     20 N7           3.4500     0.0010     1.2300 nv         1 AT6      -1.082500
     21 C9          -0.7710     0.0010    -1.2950 c3         1 AT6      -0.065800
     22 H1           1.6230    -0.0020    -1.0560 ha         1 AT6       0.142000
     23 H3          -1.6950    -0.0720     0.9000 ha         1 AT6       0.145000
     24 H101        -1.5840     0.5280     3.6790 hc         1 AT6       0.135700
     25 H102        -0.0620     0.0930     4.6260 hc         1 AT6       0.135700
     26 H111         0.5200    -1.7520     3.9250 h1         1 AT6       0.273700
     27 H112        -0.5760    -1.6390     5.4440 h1         1 AT6       0.273700
     28 HN12        -0.9440    -0.3410     6.3740 hn         1 AT6       0.337500
     29 H27         -2.7420    -0.6650     7.5370 ha         1 AT6       0.159500
     30 H28         -3.6580    -0.4490     9.7990 ha         1 AT6       0.153000
     31 H30         -1.4990    -3.9330    10.9330 ha         1 AT6       0.153000
     32 H31         -0.2840    -3.9360     8.8480 ha         1 AT6       0.159500
     33 HN71         4.0590     0.7750     1.4070 hn         1 AT6       0.420800
     34 HN72         4.0170    -0.7970     1.0220 hn         1 AT6       0.420800
     35 H91         -1.2430     0.8920    -1.6910 hc         1 AT6       0.039367
     36 H92         -1.3900    -0.8530    -1.5410 hc         1 AT6       0.039367
     37 H93         -0.0280    -0.0920    -2.0780 hc         1 AT6       0.039367
@<TRIPOS>BOND
     1     1     2 ar
     2     1     6 ar
     3     1    21 1
     4     2     3 ar
     5     2    22 1
     6     3     4 ar
     7     3    20 1
     8     4     5 ar
     9     5     6 ar
    10     5     7 1
    11     6    23 1
    12     7     8 1
    13     7    24 1
    14     7    25 1
    15     8     9 1
    16     8    26 1
    17     8    27 1
    18     9    10 1
    19     9    28 1
    20    10    11 2
    21    10    12 1
    22    12    13 ar
    23    12    17 ar
    24    13    14 ar
    25    13    29 1
    26    14    15 ar
    27    14    30 1
    28    15    16 ar
    29    15    18 1
    30    16    17 ar
    31    16    31 1
    32    17    32 1
    33    18    19 3
    34    20    33 1
    35    20    34 1
    36    21    35 1
    37    21    36 1
    38    21    37 1
@<TRIPOS>SUBSTRUCTURE
     1 AT6         1 TEMP              0 ****  ****    0 ROOT
