@<TRIPOS>MOLECULE
molecule
   37    39     1     0     0
SMALL
bcc


@<TRIPOS>ATOM
      1 P            0.0000     0.0000     0.0000 p5         1 AT7       1.009900
      2 N1           9.1770     3.2080    -4.1950 nb         1 AT7      -0.789000
      3 C2           9.3490     2.5680    -3.0520 ca         1 AT7       0.679900
      4 N3           8.3400     2.1620    -2.3110 nb         1 AT7      -0.734000
      5 C4           7.0870     2.3840    -2.6940 ca         1 AT7       0.454800
      6 C5           6.8510     3.0620    -3.9020 ca         1 AT7      -0.140200
      7 C6           7.9610     3.4760    -4.6570 ca         1 AT7       0.737200
      8 N6           8.2070     3.4170    -6.0910 nv         1 AT7      -1.056500
      9 N7           5.5080     3.1540    -4.0530 nc         1 AT7      -0.651100
     10 C8           4.9180     2.5910    -3.0380 cd         1 AT7       0.421700
     11 N9           5.8490     2.1000    -2.1720 na         1 AT7      -0.216000
     12 C1'          5.5800     1.3980    -0.9140 c3         1 AT7       0.283800
     13 C2'          5.6120     2.3860     0.2800 c3         1 AT7       0.050500
     14 C3'          4.7230     1.6650     1.3210 c3         1 AT7       0.102100
     15 N3'          6.9770     2.5530     0.7830 n2         1 AT7      -0.261200
     16 O3'          5.5300     0.9490     2.2590 oh         1 AT7      -0.587800
     17 C4'          3.8760     0.6880     0.4830 c3         1 AT7       0.160100
     18 N4'          7.1890     3.3010     1.5950 n1         1 AT7       0.200000
     19 O4'          4.2290     0.8910    -0.8960 os         1 AT7      -0.381600
     20 C5'          2.3880     0.9810     0.6880 c3         1 AT7      -0.183600
     21 N5'          7.4200     4.0440     2.4070 n2         1 AT7      -0.511400
     22 O5'          1.6090     0.0000     0.0000 os         1 AT7      -0.288200
     23 H61          7.9460     4.1860    -6.6760 hn         1 AT7       0.432800
     24 H62          8.6460     2.6110    -6.4910 hn         1 AT7       0.432800
     25 H1'          6.2880     0.5940    -0.7590 h2         1 AT7       0.106700
     26 H2'          5.1770     3.3380     0.0000 h1         1 AT7       0.080700
     27 H3'          4.0830     2.3770     1.8280 h1         1 AT7       0.063700
     28 HO3'         5.3050     1.2150     3.1350 ho         1 AT7       0.406000
     29 H4'          4.1000    -0.3320     0.7730 h1         1 AT7       0.065700
     30 H5'          2.1960     1.2060     1.7310 h1         1 AT7       0.209700
     31 H5''         1.7960     0.1280     0.3800 h1         1 AT7       0.209700
     32 HN5'         6.6870     4.6030     2.7970 hn         1 AT7       0.410400
     33 OP1         -0.4940     0.0000     1.3960 o          1 AT7      -0.650500
     34 OP2         -0.5360     1.3140    -0.7590 o          1 AT7      -0.650500
     35 OP3         -0.5370    -1.3140    -0.7590 o          1 AT7      -0.650500
     36 H2          10.3720     2.4960    -2.7020 h5         1 AT7       0.055100
     37 H8           4.0830     3.1800    -3.3950 h5         1 AT7       0.176800
@<TRIPOS>BOND
     1     1    22 1
     2     2     3 ar
     3     2     7 ar
     4     3     4 ar
     5     3    36 1
     6     4     5 ar
     7     5     6 ar
     8     5    11 1
     9     6     7 ar
    10     6     9 1
    11     7     8 1
    12     8    23 1
    13     8    24 1
    14     9    10 2
    15    10    11 1
    16    10    37 1
    17    11    12 1
    18    12    13 1
    19    12    19 1
    20    12    25 1
    21    13    14 1
    22    13    15 1
    23    13    26 1
    24    14    16 1
    25    14    17 1
    26    14    27 1
    27    15    18 2
    28    16    28 1
    29    17    19 1
    30    17    20 1
    31    17    29 1
    32    18    21 2
    33    20    22 1
    34    20    30 1
    35    20    31 1
    36    21    32 1
    37     1    33 1
    38     1    34 1
    39     1    35 1
@<TRIPOS>SUBSTRUCTURE
     1 AT7         1 TEMP              0 ****  ****    0 ROOT
