@<TRIPOS>MOLECULE
AT8
   52    55     1     0     0
SMALL
bcc


@<TRIPOS>ATOM
      1 Cl2          0.0000     0.0000     0.0000 cl         1 AT8      -0.009400
      2 C23          1.7360     0.0000     0.0000 ca         1 AT8      -0.034600
      3 C8           2.4350     0.0000     1.2070 cp         1 AT8      -0.017000
      4 C7           1.6970     0.0070     2.4940 cp         1 AT8      -0.045000
      5 C6           1.7910     1.1040     3.3480 ca         1 AT8      -0.082000
      6 C5           1.0980     1.1070     4.5420 ca         1 AT8      -0.109000
      7 C4           0.3120     0.0230     4.8910 ca         1 AT8      -0.094000
      8 C3           0.2150    -1.0670     4.0470 ca         1 AT8      -0.099000
      9 C2           0.9030    -1.0810     2.8500 ca         1 AT8      -0.060300
     10 C1           0.7920    -2.2690     1.9300 c3         1 AT8      -0.003100
     11 C            1.9590    -3.2250     2.1860 c3         1 AT8       0.007900
     12 C22          2.4290    -0.0070    -1.1960 ca         1 AT8      -0.076000
     13 C11          3.8110    -0.0080    -1.1960 ca         1 AT8      -0.090300
     14 C10          4.5090    -0.0030    -0.0010 ca         1 AT8      -0.095000
     15 C9           3.8280    -0.0060     1.1990 ca         1 AT8      -0.084000
     16 C12          4.5610    -0.0160    -2.5030 c3         1 AT8       0.205100
     17 N            4.8060     1.3670    -2.9350 n7         1 AT8      -0.588200
     18 C13          5.5370     1.3980    -4.2090 c3         1 AT8       0.142800
     19 C14          5.7730     2.8520    -4.6250 c3         1 AT8      -0.012700
     20 C15          6.5230     2.8840    -5.9320 cc         1 AT8       0.210800
     21 N2           6.1100     3.5390    -7.0520 na         1 AT8       0.273700
     22 C21          7.0660     3.3280    -8.0260 ca         1 AT8      -0.272200
     23 C16          8.0530     2.5240    -7.4330 ca         1 AT8       0.072400
     24 N1           7.6610     2.2960    -6.1530 nd         1 AT8      -0.516100
     25 C20          7.2010     3.7310    -9.3480 ca         1 AT8      -0.073000
     26 C19          8.3070     3.3410   -10.0740 ca         1 AT8      -0.030600
     27 Cl1          8.4750     3.8460   -11.7260 cl         1 AT8      -0.005400
     28 C18          9.2870     2.5460    -9.4920 ca         1 AT8      -0.055600
     29 Cl          10.6720     2.0650   -10.4220 cl         1 AT8      -0.005400
     30 C17          9.1680     2.1380    -8.1830 ca         1 AT8      -0.027000
     31 H1           2.4070     1.9530     3.0760 ha         1 AT8       0.107000
     32 H2           1.1710     1.9590     5.2070 ha         1 AT8       0.103000
     33 H3          -0.2300     0.0300     5.8290 ha         1 AT8       0.102000
     34 H4          -0.4030    -1.9120     4.3260 ha         1 AT8       0.107000
     35 H5          -0.1430    -2.7830     2.1160 hc         1 AT8       0.028200
     36 H6           0.8200    -1.9320     0.9000 hc         1 AT8       0.028200
     37 H7           1.5890    -4.1300     2.6510 hc         1 AT8       0.003700
     38 H8           2.6780    -2.7490     2.8410 hc         1 AT8       0.003700
     39 H9           2.4360    -3.4720     1.2450 hc         1 AT8       0.003700
     40 H10          1.8880    -0.0110    -2.1340 ha         1 AT8       0.120000
     41 H11          5.5920    -0.0060    -0.0080 ha         1 AT8       0.106000
     42 H12          4.3760    -0.0040     2.1340 ha         1 AT8       0.113000
     43 H13          3.9740    -0.5300    -3.2540 h1         1 AT8       0.012700
     44 H14          5.5080    -0.5270    -2.3730 h1         1 AT8       0.012700
     45 H15          5.3370     1.8460    -2.2350 hn         1 AT8       0.256800
     46 H17          4.9550     0.8950    -4.9720 h1         1 AT8       0.020200
     47 H18          6.4900     0.8970    -4.0920 h1         1 AT8       0.020200
     48 H19          4.8200     3.3530    -4.7430 hc         1 AT8       0.026200
     49 H20          6.3550     3.3560    -3.8630 hc         1 AT8       0.026200
     50 H21          5.3400     4.1760    -7.1110 hn         1 AT8       0.130700
     51 H23          6.4800     4.4120    -9.7830 ha         1 AT8       0.114000
     52 H24          9.9360     1.5180    -7.7350 ha         1 AT8       0.125000
@<TRIPOS>BOND
     1     1     2 1   
     2     2     3 ar  
     3     2    12 ar  
     4     3     4 1   
     5     3    15 ar  
     6     4     5 ar  
     7     4     9 ar  
     8     5     6 ar  
     9     5    31 1   
    10     6     7 ar  
    11     6    32 1   
    12     7     8 ar  
    13     7    33 1   
    14     8     9 ar  
    15     8    34 1   
    16     9    10 1   
    17    10    11 1   
    18    10    35 1   
    19    10    36 1   
    20    11    37 1   
    21    11    38 1   
    22    11    39 1   
    23    12    13 ar  
    24    12    40 1   
    25    13    14 ar  
    26    13    16 1   
    27    14    15 ar  
    28    14    41 1   
    29    15    42 1   
    30    16    17 1   
    31    16    43 1   
    32    16    44 1   
    33    17    18 1   
    34    17    45 1   
    35    18    19 1   
    36    18    46 1   
    37    18    47 1   
    38    19    20 1   
    39    19    48 1   
    40    19    49 1   
    41    20    21 1   
    42    20    24 2   
    43    21    22 1   
    44    21    50 1   
    45    22    23 ar  
    46    22    25 ar  
    47    23    24 1   
    48    23    30 ar  
    49    25    26 ar  
    50    25    51 1   
    51    26    27 1   
    52    26    28 ar  
    53    28    29 1   
    54    28    30 ar  
    55    30    52 1   
@<TRIPOS>SUBSTRUCTURE
     1 AT8         1 TEMP              0 ****  ****    0 ROOT
