@<TRIPOS>MOLECULE
molecule
   52    55     1     0     0
SMALL
bcc


@<TRIPOS>ATOM
      1 Cl2          0.0000     0.0000     0.0000 cl         1 AT8      -0.096400
      2 C23          1.7360     0.0000     0.0000 ca         1 AT8       0.031400
      3 C8           2.4350     0.0000     1.2070 cp         1 AT8      -0.020000
      4 C7           1.6970     0.0070     2.4940 cp         1 AT8      -0.050000
      5 C6           1.7910     1.1040     3.3480 ca         1 AT8      -0.106000
      6 C5           1.0980     1.1070     4.5420 ca         1 AT8      -0.137000
      7 C4           0.3120     0.0230     4.8910 ca         1 AT8      -0.119000
      8 C3           0.2150    -1.0670     4.0470 ca         1 AT8      -0.128000
      9 C2           0.9030    -1.0810     2.8500 ca         1 AT8      -0.050300
     10 C1           0.7920    -2.2690     1.9300 c3         1 AT8      -0.051100
     11 C            1.9590    -3.2250     2.1860 c3         1 AT8      -0.087100
     12 C22          2.4290    -0.0070    -1.1960 ca         1 AT8      -0.099000
     13 C11          3.8110    -0.0080    -1.1960 ca         1 AT8      -0.081300
     14 C10          4.5090    -0.0030    -0.0010 ca         1 AT8      -0.124000
     15 C9           3.8280    -0.0060     1.1990 ca         1 AT8      -0.109000
     16 C12          4.5610    -0.0160    -2.5030 c3         1 AT8       0.207100
     17 N            4.8060     1.3670    -2.9350 n7         1 AT8      -0.820200
     18 C13          5.5370     1.3980    -4.2090 c3         1 AT8       0.159800
     19 C14          5.7730     2.8520    -4.6250 c3         1 AT8      -0.082700
     20 C15          6.5230     2.8840    -5.9320 cc         1 AT8       0.431800
     21 N2           6.1100     3.5390    -7.0520 na         1 AT8      -0.258300
     22 C21          7.0660     3.3280    -8.0260 ca         1 AT8      -0.090200
     23 C16          8.0530     2.5240    -7.4330 ca         1 AT8       0.101400
     24 N1           7.6610     2.2960    -6.1530 nd         1 AT8      -0.602100
     25 C20          7.2010     3.7310    -9.3480 ca         1 AT8      -0.113000
     26 C19          8.3070     3.3410   -10.0740 ca         1 AT8       0.042400
     27 Cl1          8.4750     3.8460   -11.7260 cl         1 AT8      -0.083400
     28 C18          9.2870     2.5460    -9.4920 ca         1 AT8       0.013400
     29 Cl          10.6720     2.0650   -10.4220 cl         1 AT8      -0.084400
     30 C17          9.1680     2.1380    -8.1830 ca         1 AT8      -0.057000
     31 H1           2.4070     1.9530     3.0760 ha         1 AT8       0.134000
     32 H2           1.1710     1.9590     5.2070 ha         1 AT8       0.130000
     33 H3          -0.2300     0.0300     5.8290 ha         1 AT8       0.129000
     34 H4          -0.4030    -1.9120     4.3260 ha         1 AT8       0.133000
     35 H5          -0.1430    -2.7830     2.1160 hc         1 AT8       0.055700
     36 H6           0.8200    -1.9320     0.9000 hc         1 AT8       0.055700
     37 H7           1.5890    -4.1300     2.6510 hc         1 AT8       0.035700
     38 H8           2.6780    -2.7490     2.8410 hc         1 AT8       0.035700
     39 H9           2.4360    -3.4720     1.2450 hc         1 AT8       0.035700
     40 H10          1.8880    -0.0110    -2.1340 ha         1 AT8       0.149000
     41 H11          5.5920    -0.0060    -0.0080 ha         1 AT8       0.133000
     42 H12          4.3760    -0.0040     2.1340 ha         1 AT8       0.143000
     43 H13          3.9740    -0.5300    -3.2540 h1         1 AT8       0.043200
     44 H14          5.5080    -0.5270    -2.3730 h1         1 AT8       0.043200
     45 H15          5.3370     1.8460    -2.2350 hn         1 AT8       0.356800
     46 H17          4.9550     0.8950    -4.9720 h1         1 AT8       0.049700
     47 H18          6.4900     0.8970    -4.0920 h1         1 AT8       0.049700
     48 H19          4.8200     3.3530    -4.7430 hc         1 AT8       0.067700
     49 H20          6.3550     3.3560    -3.8630 hc         1 AT8       0.067700
     50 H21          5.3400     4.1760    -7.1110 hn         1 AT8       0.307700
     51 H23          6.4800     4.4120    -9.7830 ha         1 AT8       0.147000
     52 H24          9.9360     1.5180    -7.7350 ha         1 AT8       0.162000
@<TRIPOS>BOND
     1     6     5 ar
     2     6     7 ar
     3     5     4 ar
     4     7     8 ar
     5    15    14 ar
     6    15     3 ar
     7     4     9 ar
     8     4     3 1
     9     8     9 ar
    10    14    13 ar
    11     9    10 1
    12     3     2 ar
    13    11    10 1
    14    13    16 1
    15    13    12 ar
    16     2    12 ar
    17     2     1 1
    18    16    17 1
    19    17    18 1
    20    18    19 1
    21    19    20 1
    22    20    21 1
    23    20    24 2
    24    21    22 1
    25    24    23 1
    26    22    23 ar
    27    22    25 ar
    28    23    30 ar
    29    25    26 ar
    30    30    28 ar
    31    26    28 ar
    32    26    27 1
    33    28    29 1
    34     5    31 1
    35     6    32 1
    36     7    33 1
    37     8    34 1
    38    10    35 1
    39    10    36 1
    40    11    37 1
    41    11    38 1
    42    11    39 1
    43    12    40 1
    44    14    41 1
    45    15    42 1
    46    16    43 1
    47    16    44 1
    48    17    45 1
    49    18    46 1
    50    18    47 1
    51    19    48 1
    52    19    49 1
    53    21    50 1
    54    25    51 1
    55    30    52 1
@<TRIPOS>SUBSTRUCTURE
     1 AT8         1 TEMP              0 ****  ****    0 ROOT
