@<TRIPOS>MOLECULE
ATA
   62    62     1     0     0
SMALL
bcc


@<TRIPOS>ATOM
      1 N'           0.0000     0.0000     0.0000 nz         1 ATA       0.040400
      2 CA'          1.4680     0.0000     0.0000 c3         1 ATA      -0.124500
      3 CB'          1.9780     0.0000     1.4420 c3         1 ATA      -0.126400
      4 CG'          1.4690     1.2490     2.1640 c3         1 ATA      -0.073400
      5 CC'          1.9710    -1.2300    -0.7110 c          1 ATA       0.952600
      6 O1'          3.1430    -1.1950    -1.3640 o          1 ATA      -0.819800
      7 O2'          1.3180    -2.2460    -0.6940 o          1 ATA      -0.819800
      8 C'           1.9710     1.2480     3.5840 c          1 ATA       0.579100
      9 O'           2.6680     0.3380     3.9810 o          1 ATA      -0.622100
     10 N5           3.5010     8.5420     7.1230 nb         1 ATA      -0.831000
     11 C6           2.7310     7.5740     7.6090 ca         1 ATA       0.793900
     12 N1           2.7320     6.3740     7.0380 nb         1 ATA      -0.798000
     13 C2           3.4970     6.1430     5.9750 ca         1 ATA       0.861300
     14 N3           4.2690     7.1120     5.4890 nb         1 ATA      -0.778000
     15 C4           4.2690     8.3100     6.0620 ca         1 ATA       0.790900
     16 N            1.6460     2.2590     4.4140 ns         1 ATA      -0.206900
     17 CA           2.1340     2.2580     5.7950 c3         1 ATA       0.025700
     18 C            1.1420     1.5470     6.6790 c          1 ATA       0.527100
     19 O            1.5240     0.9580     7.6680 o          1 ATA      -0.671100
     20 CB           2.3040     3.7000     6.2760 c3         1 ATA      -0.102300
     21 SG           3.4950     4.5540     5.2160 ss         1 ATA      -0.362400
     22 N7           5.0700     9.3160     5.5580 nu         1 ATA      -0.470900
     23 C12          1.0850     6.7480     9.2460 c3         1 ATA       0.157800
     24 C13          0.3090     7.2720    10.4550 c3         1 ATA      -0.006100
     25 C8           5.9160     9.0610     4.3900 c3         1 ATA       0.126500
     26 C9           6.0940    10.3570     3.5970 c3         1 ATA      -0.012600
     27 C10          7.2840     8.5560     4.8530 c3         1 ATA      -0.012600
     28 ND          -0.1700     1.5670     6.3700 ns         1 ATA      -0.128900
     29 CAD         -1.1350     0.8750     7.2300 c3         1 ATA      -0.075000
     30 CD          -2.5210     1.0480     6.6680 c          1 ATA       0.974600
     31 OD          -3.5730     0.4960     7.2930 o          1 ATA      -0.893300
     32 OT'         -2.6880     1.6840     5.6540 o          1 ATA      -0.893300
     33 HN'1        -0.3340    -0.4170    -0.8470 hn         1 ATA       0.218133
     34 HN'2        -0.3340    -0.5250     0.7840 hn         1 ATA       0.218133
     35 HA'          1.8290     0.8850    -0.5100 hx         1 ATA       0.062700
     36 HB'1         2.3750     0.7340     0.7510 hc         1 ATA       0.088700
     37 HB'2         2.8610    -0.5360     1.7670 hc         1 ATA       0.088700
     38 HG'1         1.8300     2.1340     1.6540 hc         1 ATA       0.011700
     39 HG'2         0.3850     1.2490     2.1650 hc         1 ATA       0.011700
     40 HN           1.1090     3.0320     4.0730 hn         1 ATA       0.192500
     41 HA           3.0890     1.7480     5.8400 h1         1 ATA       0.073700
     42 HB1          3.1280     3.0090     6.4060 h1         1 ATA       0.114700
     43 HB2          2.0930     4.0250     7.2880 h1         1 ATA       0.114700
     44 H7           5.0470    10.2280     5.9700 hn         1 ATA       0.297800
     45 H11          1.9160     8.7240     9.1240 hn         1 ATA       0.298800
     46 H121         0.3870     6.4220     8.4830 h1         1 ATA       0.032200
     47 H122         1.7040     5.9120     9.5490 h1         1 ATA       0.032200
     48 H131        -0.4010     8.0230    10.1310 hc         1 ATA       0.008700
     49 H132        -0.2210     6.4540    10.9270 hc         1 ATA       0.008700
     50 H133         1.0000     7.7110    11.1640 hc         1 ATA       0.008700
     51 H8           5.4480     8.3140     3.7610 h1         1 ATA       0.063700
     52 H91          5.1270    10.8150     3.4310 hc         1 ATA       0.009533
     53 H92          6.5580    10.1360     2.6430 hc         1 ATA       0.009533
     54 H93          6.7250    11.0380     4.1560 hc         1 ATA       0.009533
     55 H101         7.2480     7.4800     4.9800 hc         1 ATA       0.009533
     56 H102         8.0320     8.8060     4.1090 hc         1 ATA       0.009533
     57 H103         7.5420     9.0220     5.7960 hc         1 ATA       0.009533
     58 HN'         -0.4860     2.0590     5.5580 hn         1 ATA       0.190500
     59 HA'1        -1.0940     1.2940     8.2280 h1         1 ATA       0.029200
     60 HA'2        -0.8910    -0.1800     7.2700 h1         1 ATA       0.029200
     61 H'3         -0.3340     0.9410     0.0760 hn         1 ATA       0.218133
     62 N11          1.9340     7.8140     8.7090 nu         1 ATA      -0.467900
@<TRIPOS>BOND
     1     1     2 1   
     2     1    33 1   
     3     1    34 1   
     4     1    61 1   
     5     2     3 1   
     6     2     5 1   
     7     2    35 1   
     8     3     4 1   
     9     3    36 1   
    10     3    37 1   
    11     4     8 1   
    12     4    38 1   
    13     4    39 1   
    14     5     6 1   
    15     5     7 1   
    16     8     9 2   
    17     8    16 1   
    18    10    11 ar  
    19    10    15 ar  
    20    11    12 ar  
    21    11    62 1   
    22    12    13 ar  
    23    13    14 ar  
    24    13    21 1   
    25    14    15 ar  
    26    15    22 1   
    27    16    17 1   
    28    16    40 1   
    29    17    18 1   
    30    17    20 1   
    31    17    41 1   
    32    18    19 2   
    33    18    28 1   
    34    20    21 1   
    35    20    42 1   
    36    20    43 1   
    37    22    25 1   
    38    22    44 1   
    39    23    24 1   
    40    23    46 1   
    41    23    47 1   
    42    23    62 1   
    43    24    48 1   
    44    24    49 1   
    45    24    50 1   
    46    25    26 1   
    47    25    27 1   
    48    25    51 1   
    49    26    52 1   
    50    26    53 1   
    51    26    54 1   
    52    27    55 1   
    53    27    56 1   
    54    27    57 1   
    55    28    29 1   
    56    28    58 1   
    57    29    30 1   
    58    29    59 1   
    59    29    60 1   
    60    30    31 1   
    61    30    32 1   
    62    45    62 1   
@<TRIPOS>SUBSTRUCTURE
     1 ATA         1 TEMP              0 ****  ****    0 ROOT
