@<TRIPOS>MOLECULE
ATC
   68    71     1     0     0
SMALL
bcc


@<TRIPOS>ATOM
      1 C1           1.5450     0.0000     0.0000 c          1 ATC       0.619300
      2 O1           2.1000    -0.7610    -0.8370 o          1 ATC      -0.630100
      3 C2           2.2050     1.0240     0.6770 ce         1 ATC      -0.474400
      4 C21          3.5610     1.3060     0.4670 c          1 ATC       0.392300
      5 O21          4.1110     2.2810     1.0350 o          1 ATC      -0.498100
      6 N21          4.3610     0.5790    -0.3780 nz         1 ATC       0.205600
      7 C3           1.4310     1.7240     1.5930 c2         1 ATC       0.466900
      8 O3           1.7680     3.0190     1.9990 oh         1 ATC      -0.463100
      9 C4           0.2510     1.0820     2.3160 c3         1 ATC       0.124700
     10 N4          -0.6650     2.2510     2.7480 n3         1 ATC      -0.600600
     11 C42         -1.8320     1.7320     3.6600 c3         1 ATC       0.214100
     12 C43         -1.1590     3.1530     1.5890 c3         1 ATC       0.214100
     13 C41         -0.4730     0.0000     1.4590 c3         1 ATC      -0.067700
     14 C5          -0.2210    -1.3880     1.9970 c3         1 ATC      -0.021400
     15 C51         -1.0390    -2.4870     1.3670 c3         1 ATC       0.013500
     16 C6          -0.6030    -3.9280     1.7080 c3         1 ATC       0.043900
     17 C61         -1.4670    -4.9610     0.9410 ca         1 ATC      -0.026300
     18 C7          -1.7080    -6.1870     1.5590 ca         1 ATC      -0.137000
     19 C8          -2.4250    -7.1720     0.8770 ca         1 ATC      -0.058000
     20 C9          -2.9050    -6.9500    -0.4240 ca         1 ATC      -0.115400
     21 C10         -2.6690    -5.7030    -1.0400 ca         1 ATC       0.209100
     22 O10         -3.1900    -5.4670    -2.3400 oh         1 ATC      -0.481100
     23 C1A         -1.9490    -4.6900    -0.3600 ca         1 ATC      -0.200600
     24 C11         -1.6140    -3.4660    -0.9550 c          1 ATC       0.636900
     25 O11         -1.9210    -3.3000    -2.1310 o          1 ATC      -0.542100
     26 C1B         -1.0660    -2.3760    -0.2100 ce         1 ATC      -0.197400
     27 C12         -0.6240    -1.1700    -0.7820 c2         1 ATC       0.111900
     28 O12         -0.7940    -0.8830    -2.1970 oh         1 ATC      -0.479100
     29 C1C          0.0000     0.0000     0.0000 c3         1 ATC       0.145000
     30 O1C         -0.4880     1.1980    -0.6100 oh         1 ATC      -0.558800
     31 N9          -3.5160    -7.9890    -1.0840 ns         1 ATC      -0.039100
     32 C91         -4.8340    -8.1060    -1.2440 c          1 ATC       0.527100
     33 O91         -5.6290    -7.5140    -0.5030 o          1 ATC      -0.642100
     34 C92         -5.4670    -8.9290    -2.3590 c3         1 ATC       0.128800
     35 N92         -6.6350    -8.0920    -3.0620 n3         1 ATC      -0.613600
     36 C93         -8.0120    -8.0110    -2.2500 c3         1 ATC       0.229100
     37 C94         -6.1000    -6.7020    -3.6380 c3         1 ATC       0.229100
     38 HN21         5.2960     0.9340    -0.3390 hn         1 ATC       0.250800
     39 HN22         4.0140     0.6560    -1.3140 hn         1 ATC       0.250800
     40 HO3          2.1450     2.9900     2.8630 ho         1 ATC       0.460000
     41 H4           0.6290     0.6000     3.2090 h1         1 ATC       0.075700
     42 H421        -2.5350     1.1680     3.0590 h1         1 ATC       0.015200
     43 H422        -2.3380     2.5760     4.1130 h1         1 ATC       0.015200
     44 H423        -1.4270     1.0940     4.4360 h1         1 ATC       0.015200
     45 H431        -1.5420     4.0820     1.9920 h1         1 ATC       0.015200
     46 H432        -1.9460     2.6440     1.0450 h1         1 ATC       0.015200
     47 H433        -0.3340     3.3620     0.9180 h1         1 ATC       0.015200
     48 H41         -1.5380     0.1940     1.4810 hc         1 ATC       0.084700
     49 H51A         0.8270    -1.6210     1.8520 hc         1 ATC       0.018700
     50 H52         -0.4290    -1.3800     3.0600 hc         1 ATC       0.018700
     51 H51         -2.0570    -2.3680     1.7170 hc         1 ATC       0.045700
     52 H61         -0.7400    -4.0870     2.7700 hc         1 ATC       0.027700
     53 H62          0.4300    -4.0550     1.4090 hc         1 ATC       0.027700
     54 H7          -2.0300    -6.0760     2.5870 ha         1 ATC       0.121000
     55 H8          -3.1530    -7.6670     1.5080 ha         1 ATC       0.130000
     56 H10         -2.5300    -5.6680    -2.9830 ho         1 ATC       0.413000
     57 HO2         -0.1410    -1.3490    -2.6930 ho         1 ATC       0.413000
     58 HOC1        -0.0800     1.3120    -1.4510 ho         1 ATC       0.415000
     59 HN9         -2.9330    -8.7040    -1.4710 hn         1 ATC       0.169500
     60 H921        -4.7120    -9.1790    -3.0940 h1         1 ATC       0.027700
     61 H922        -5.8790    -9.8410    -1.9430 h1         1 ATC       0.027700
     62 H931        -8.8430    -8.0200    -2.9450 h1         1 ATC       0.002867
     63 H932        -8.0360    -7.0950    -1.6710 h1         1 ATC       0.002867
     64 H933        -8.0890    -8.8610    -1.5830 h1         1 ATC       0.002867
     65 H941        -6.0350    -5.9790    -2.8340 h1         1 ATC       0.002867
     66 H942        -6.7820    -6.3380    -4.3960 h1         1 ATC       0.002867
     67 H943        -5.1180    -6.8460    -4.0740 h1         1 ATC       0.002867
     68 H213         4.3570    -0.3820    -0.0980 hn         1 ATC       0.250800
@<TRIPOS>BOND
     1     1     2 2   
     2     1     3 1   
     3     1    29 1   
     4     3     4 1   
     5     3     7 2   
     6     4     5 2   
     7     4     6 1   
     8     6    38 1   
     9     6    39 1   
    10     6    68 1   
    11     7     8 1   
    12     7     9 1   
    13     8    40 1   
    14     9    10 1   
    15     9    13 1   
    16     9    41 1   
    17    10    11 1   
    18    10    12 1   
    19    11    42 1   
    20    11    43 1   
    21    11    44 1   
    22    12    45 1   
    23    12    46 1   
    24    12    47 1   
    25    13    14 1   
    26    13    29 1   
    27    13    48 1   
    28    14    15 1   
    29    14    49 1   
    30    14    50 1   
    31    15    16 1   
    32    15    26 1   
    33    15    51 1   
    34    16    17 1   
    35    16    52 1   
    36    16    53 1   
    37    17    18 ar  
    38    17    23 ar  
    39    18    19 ar  
    40    18    54 1   
    41    19    20 ar  
    42    19    55 1   
    43    20    21 ar  
    44    20    31 1   
    45    21    22 1   
    46    21    23 ar  
    47    22    56 1   
    48    23    24 1   
    49    24    25 2   
    50    24    26 1   
    51    26    27 2   
    52    27    28 1   
    53    27    29 1   
    54    28    57 1   
    55    29    30 1   
    56    30    58 1   
    57    31    32 1   
    58    31    59 1   
    59    32    33 2   
    60    32    34 1   
    61    34    35 1   
    62    34    60 1   
    63    34    61 1   
    64    35    36 1   
    65    35    37 1   
    66    36    62 1   
    67    36    63 1   
    68    36    64 1   
    69    37    65 1   
    70    37    66 1   
    71    37    67 1   
@<TRIPOS>SUBSTRUCTURE
     1 ATC         1 TEMP              0 ****  ****    0 ROOT
