@<TRIPOS>MOLECULE
molecule
   50    53     1     0     0
SMALL
bcc


@<TRIPOS>ATOM
      1 O1           0.0000     0.0000     0.0000 oh         1 ATE      -0.604800
      2 C3           1.4290     0.0000     0.0000 c3         1 ATE       0.147100
      3 C2           1.9390     0.0000     1.4430 c3         1 ATE      -0.091400
      4 C1           1.4300     1.2510     2.1620 c3         1 ATE      -0.067400
      5 C4           1.9390     1.2480    -0.7220 c3         1 ATE      -0.085400
      6 C5           1.4310     2.4980    -0.0010 c3         1 ATE      -0.050700
      7 C6           1.9410     3.7450    -0.7280 c3         1 ATE      -0.080400
      8 C10          1.9470     2.5080     1.4270 c3         1 ATE      -0.053000
      9 C19          3.4770     2.5010     1.4230 c3         1 ATE      -0.092100
     10 C9           1.4370     3.7490     2.1610 c3         1 ATE      -0.051700
     11 C11          1.8740     3.7050     3.6210 c3         1 ATE      -0.083400
     12 C8           1.9730     4.9940     1.4350 c3         1 ATE      -0.063700
     13 C7           1.4470     4.9980    -0.0010 c3         1 ATE      -0.073400
     14 C14          1.4390     6.2040     2.2080 c3         1 ATE      -0.068700
     15 C15          1.9540     7.5820     1.7680 c3         1 ATE      -0.052200
     16 C13          2.1240     6.1430     3.6070 c3         1 ATE      -0.046800
     17 C12          1.4960     5.0000     4.3660 c3         1 ATE      -0.059400
     18 C18          3.6160     5.8610     3.4170 c3         1 ATE      -0.094100
     19 C17          1.9530     7.5380     4.1050 c2         1 ATE      -0.156200
     20 C16          1.8810     8.3740     3.0730 c2         1 ATE      -0.189200
     21 HO1         -0.3140    -0.7810    -0.4240 ho         1 ATE       0.397000
     22 H3           1.7940    -0.8840    -0.5090 h1         1 ATE       0.025700
     23 H21          3.0220     0.0010     1.4420 hc         1 ATE       0.044700
     24 H22          1.5730    -0.8830     1.9540 hc         1 ATE       0.044700
     25 H11          1.7950     1.2530     3.1820 hc         1 ATE       0.050700
     26 H12          0.3460     1.2520     2.1600 hc         1 ATE       0.050700
     27 H41          1.5750     1.2480    -1.7430 hc         1 ATE       0.046700
     28 H42          3.0230     1.2470    -0.7210 hc         1 ATE       0.046700
     29 H5           0.3470     2.4990     0.0040 hc         1 ATE       0.070700
     30 H61          3.0240     3.7380    -0.7370 hc         1 ATE       0.040700
     31 H62          1.5660     3.7470    -1.7440 hc         1 ATE       0.040700
     32 H191         3.8330     1.6640     0.8350 hc         1 ATE       0.036033
     33 H192         3.8410     2.4100     2.4390 hc         1 ATE       0.036033
     34 H193         3.8410     3.4260     0.9910 hc         1 ATE       0.036033
     35 H9           0.3550     3.7590     2.1200 hc         1 ATE       0.054700
     36 H111         1.3920     2.8660     4.1070 hc         1 ATE       0.047200
     37 H112         2.9490     3.5750     3.6630 hc         1 ATE       0.047200
     38 H8           3.0560     4.9940     1.4380 hc         1 ATE       0.067700
     39 H71          0.3640     5.0030     0.0120 hc         1 ATE       0.041700
     40 H72          1.8110     5.8790    -0.5160 hc         1 ATE       0.041700
     41 H14          0.3600     6.1860     2.2950 hc         1 ATE       0.065700
     42 H151         1.3030     8.0150     1.0180 hc         1 ATE       0.050200
     43 H152         2.9760     7.5170     1.4140 hc         1 ATE       0.050200
     44 H121         0.4190     5.1150     4.3810 hc         1 ATE       0.043700
     45 H122         1.8860     4.9700     5.3760 hc         1 ATE       0.043700
     46 H181         3.8090     4.8090     3.5930 hc         1 ATE       0.040367
     47 H182         3.9060     6.1170     2.4060 hc         1 ATE       0.040367
     48 H183         4.1880     6.4550     4.1190 hc         1 ATE       0.040367
     49 H17          1.9270     7.8300     5.1480 ha         1 ATE       0.137000
     50 H16          1.2610     9.2600     3.1360 ha         1 ATE       0.139000
@<TRIPOS>BOND
     1     1     2 1
     2     1    21 1
     3     2     3 1
     4     2     5 1
     5     2    22 1
     6     3     4 1
     7     3    23 1
     8     3    24 1
     9     4     8 1
    10     4    25 1
    11     4    26 1
    12     5     6 1
    13     5    27 1
    14     5    28 1
    15     6     7 1
    16     6     8 1
    17     6    29 1
    18     7    13 1
    19     7    30 1
    20     7    31 1
    21     8     9 1
    22     8    10 1
    23     9    32 1
    24     9    33 1
    25     9    34 1
    26    10    11 1
    27    10    12 1
    28    10    35 1
    29    11    17 1
    30    11    36 1
    31    11    37 1
    32    12    13 1
    33    12    14 1
    34    12    38 1
    35    13    39 1
    36    13    40 1
    37    14    15 1
    38    14    16 1
    39    14    41 1
    40    15    20 1
    41    15    42 1
    42    15    43 1
    43    16    17 1
    44    16    18 1
    45    16    19 1
    46    17    44 1
    47    17    45 1
    48    18    46 1
    49    18    47 1
    50    18    48 1
    51    19    20 2
    52    19    49 1
    53    20    50 1
@<TRIPOS>SUBSTRUCTURE
     1 ATE         1 TEMP              0 ****  ****    0 ROOT
