@<TRIPOS>MOLECULE
ATE
   50    53     1     0     0
SMALL
bcc


@<TRIPOS>ATOM
      1 O1         -0.1440    0.0680   -0.2640 oh        1 ATE     -0.600800
      2 C3          1.2740    0.0070   -0.1440 c3        1 ATE      0.143100
      3 C2          1.7250   -0.0810    1.3090 c3        1 ATE     -0.109400
      4 C1          1.4710    1.1970    2.0800 c3        1 ATE     -0.070400
      5 C4          1.8320    1.2500   -0.8290 c3        1 ATE     -0.067400
      6 C5          1.5420    2.5050   -0.0260 c3        1 ATE     -0.057700
      7 C6          2.0370    3.7430   -0.7550 c3        1 ATE     -0.072400
      8 C10         2.0920    2.4310    1.4130 c3        1 ATE     -0.035000
      9 C19         3.6070    2.3050    1.4430 c3        1 ATE     -0.085100
     10 C9          1.6150    3.7030    2.1450 c3        1 ATE     -0.048700
     11 C11         1.9700    3.6970    3.6290 c3        1 ATE     -0.074400
     12 C8          2.1020    4.9750    1.4210 c3        1 ATE     -0.045700
     13 C7          1.6150    4.9950   -0.0180 c3        1 ATE     -0.072400
     14 C14         1.5660    6.1500    2.2050 c3        1 ATE     -0.067700
     15 C15         1.6960    7.5990    1.7190 c3        1 ATE     -0.045200
     16 C13         2.1880    6.1840    3.6330 c3        1 ATE     -0.030800
     17 C12         1.6380    4.9840    4.3760 c3        1 ATE     -0.059400
     18 C18         3.7120    6.1640    3.6430 c3        1 ATE     -0.081100
     19 C17         1.7810    7.5750    4.0830 c2        1 ATE     -0.167200
     20 C16         1.5710    8.3680    3.0130 c2        1 ATE     -0.180200
     21 HO1        -0.5050   -0.6160    0.3120 ho        1 ATE      0.397000
     22 H3          1.6310   -0.9130   -0.6930 h1        1 ATE      0.027700
     23 H21         2.8200   -0.3240    1.3260 hc        1 ATE      0.043700
     24 H22         1.1870   -0.9260    1.8140 hc        1 ATE      0.043700
     25 H11         1.8900    1.0810    3.1140 hc        1 ATE      0.044200
     26 H12         0.3640    1.3540    2.1700 hc        1 ATE      0.044200
     27 H41         2.9330    1.1150   -0.9770 hc        1 ATE      0.050700
     28 H42         1.3570    1.3470   -1.8410 hc        1 ATE      0.050700
     29 H5          0.4170    2.5800    0.0600 hc        1 ATE      0.064700
     30 H61         1.6100    3.7580   -1.7920 hc        1 ATE      0.040200
     31 H62         3.1530    3.7100   -0.8520 hc        1 ATE      0.040200
     32 H191        4.1000    3.2340    1.0700 hc        1 ATE      0.034700
     33 H192        3.9600    2.1130    2.4860 hc        1 ATE      0.034700
     34 H193        3.9460    1.4540    0.8040 hc        1 ATE      0.034700
     35 H9          0.4860    3.7060    2.0810 hc        1 ATE      0.046700
     36 H111        1.4090    2.8600    4.1250 hc        1 ATE      0.039700
     37 H112        3.0630    3.4770    3.7520 hc        1 ATE      0.039700
     38 H8          3.2250    5.0050    1.4150 hc        1 ATE      0.055700
     39 H71         2.0300    5.9010   -0.5330 hc        1 ATE      0.040700
     40 H72         0.4960    5.0830   -0.0350 hc        1 ATE      0.040700
     41 H14         0.4550    5.9780    2.3320 hc        1 ATE      0.049700
     42 H151        2.6860    7.7900    1.2340 hc        1 ATE      0.049700
     43 H152        0.8910    7.8660    0.9930 hc        1 ATE      0.049700
     44 H121        2.0760    4.9320    5.4060 hc        1 ATE      0.041200
     45 H122        0.5270    5.0840    4.4850 hc        1 ATE      0.041200
     46 H181        4.1110    6.9510    2.9590 hc        1 ATE      0.036367
     47 H182        4.1140    5.1760    3.3170 hc        1 ATE      0.036367
     48 H183        4.0790    6.3680    4.6780 hc        1 ATE      0.036367
     49 H17         1.7390    7.8400    5.1380 ha        1 ATE      0.138000
     50 H16         1.3220    9.4290    3.0110 ha        1 ATE      0.135000
@<TRIPOS>BOND
     1    1    2 1   
     2    1   21 1   
     3    2    3 1   
     4    2    5 1   
     5    2   22 1   
     6    3    4 1   
     7    3   23 1   
     8    3   24 1   
     9    4    8 1   
    10    4   25 1   
    11    4   26 1   
    12    5    6 1   
    13    5   27 1   
    14    5   28 1   
    15    6    7 1   
    16    6    8 1   
    17    6   29 1   
    18    7   13 1   
    19    7   30 1   
    20    7   31 1   
    21    8    9 1   
    22    8   10 1   
    23    9   32 1   
    24    9   33 1   
    25    9   34 1   
    26   10   11 1   
    27   10   12 1   
    28   10   35 1   
    29   11   17 1   
    30   11   36 1   
    31   11   37 1   
    32   12   13 1   
    33   12   14 1   
    34   12   38 1   
    35   13   39 1   
    36   13   40 1   
    37   14   15 1   
    38   14   16 1   
    39   14   41 1   
    40   15   20 1   
    41   15   42 1   
    42   15   43 1   
    43   16   17 1   
    44   16   18 1   
    45   16   19 1   
    46   17   44 1   
    47   17   45 1   
    48   18   46 1   
    49   18   47 1   
    50   18   48 1   
    51   19   20 2   
    52   19   49 1   
    53   20   50 1   
@<TRIPOS>SUBSTRUCTURE
     1 ATE         1 TEMP              0 ****  ****    0 ROOT
