@<TRIPOS>MOLECULE
ATF
   45    47     1     0     0
SMALL
bcc


@<TRIPOS>ATOM
      1 PG          0.0000    0.0000    0.0000 p5        1 ATF      0.463700
      2 O1G         1.4810    0.0000    0.0000 o         1 ATF     -0.643500
      3 O2G        -0.5350    0.0000    1.5180 o         1 ATF     -0.643500
      4 O3G        -0.5360   -1.3140   -0.7570 o         1 ATF     -0.643500
      5 PB         -0.0000    1.4890   -2.5780 p5        1 ATF      0.639600
      6 O1B         1.4790    1.4880   -2.5780 o         1 ATF     -0.502500
      7 O2B        -0.5370    0.1740   -3.3360 o         1 ATF     -0.502500
      8 C3B        -0.6070    1.4880   -0.8600 c3        1 ATF      0.552200
      9 F1B        -0.1400    2.6300   -0.2000 f         1 ATF     -0.252300
     10 F2B        -2.0060    1.4880   -0.8580 f         1 ATF     -0.252300
     11 PA          0.0330    2.7380   -4.8400 p5        1 ATF      0.889800
     12 O1A        -0.4610    1.5100   -5.5030 o         1 ATF     -0.663500
     13 O2A         1.6430    2.7170   -4.8030 o         1 ATF     -0.663500
     14 O3A        -0.5370    2.8020   -3.3370 os        1 ATF     -0.483800
     15 O5'        -0.4670    4.0290   -5.6610 os        1 ATF     -0.468200
     16 C5'         0.0690    3.9130   -6.9800 c3        1 ATF      0.247400
     17 C4'        -0.3710    5.1150   -7.8170 c3        1 ATF      0.147100
     18 O4'         0.1320    6.3410   -7.2400 os        1 ATF     -0.353600
     19 C3'         0.2600    5.0540   -9.2260 c3        1 ATF      0.121100
     20 O3'        -0.6690    4.5120  -10.1670 oh        1 ATF     -0.569800
     21 C2'         0.5740    6.5300   -9.5610 c3        1 ATF      0.111100
     22 O2'        -0.1470    6.9450  -10.7230 oh        1 ATF     -0.554800
     23 C1'         0.1000    7.3060   -8.3140 c3        1 ATF      0.144800
     24 N9          1.0100    8.4170   -8.0270 na        1 ATF      0.196000
     25 C8          2.1300    8.3620   -7.2520 cc        1 ATF      0.120700
     26 N7          2.7010    9.5310   -7.2130 nd        1 ATF     -0.547100
     27 C5          1.9890   10.4070   -7.9610 ca        1 ATF     -0.186200
     28 C6          2.1140   11.7710   -8.2730 ca        1 ATF      0.299200
     29 N6          3.1700   12.5160   -7.7780 nv        1 ATF     -0.603500
     30 N1          1.1980   12.3280   -9.0570 nb        1 ATF     -0.657000
     31 C2          0.1870   11.6250   -9.5330 ca        1 ATF      0.476900
     32 N3          0.0260   10.3470   -9.2640 nb        1 ATF     -0.773000
     33 C4          0.8930    9.7040   -8.4890 ca        1 ATF      0.272800
     34 H5'1        1.1510    3.8850   -6.9300 h1        1 ATF      0.010700
     35 H5'2       -0.2940    3.0010   -7.4390 h1        1 ATF      0.010700
     36 H4'        -1.4510    5.1540   -7.8920 h1        1 ATF      0.022700
     37 H3'         1.1720    4.4700   -9.2050 h1        1 ATF      0.017700
     38 HO3'       -0.2570    3.8150  -10.6500 ho        1 ATF      0.365000
     39 H2'         1.6400    6.6630   -9.7030 h1        1 ATF      0.012700
     40 HO2'        0.4390    6.9770  -11.4610 ho        1 ATF      0.362000
     41 H1'        -0.9100    7.6680   -8.4610 h2        1 ATF      0.046700
     42 H8          2.4910    7.4770   -6.7420 h5        1 ATF      0.042800
     43 HN61        3.1440   12.8570   -6.8370 hn        1 ATF      0.220800
     44 HN62        3.9570   12.7180   -8.3620 hn        1 ATF      0.220800
     45 H2         -0.4490   12.0810  -10.2830 h5        1 ATF     -0.051900
@<TRIPOS>BOND
     1    1    2 1   
     2    1    3 1   
     3    1    4 1   
     4    1    8 1   
     5    5    6 1   
     6    5    7 1   
     7    5    8 1   
     8    5   14 1   
     9    8    9 1   
    10    8   10 1   
    11   11   12 1   
    12   11   13 1   
    13   11   14 1   
    14   11   15 1   
    15   15   16 1   
    16   16   17 1   
    17   16   34 1   
    18   16   35 1   
    19   17   18 1   
    20   17   19 1   
    21   17   36 1   
    22   18   23 1   
    23   19   20 1   
    24   19   21 1   
    25   19   37 1   
    26   20   38 1   
    27   21   22 1   
    28   21   23 1   
    29   21   39 1   
    30   22   40 1   
    31   23   24 1   
    32   23   41 1   
    33   24   25 1   
    34   24   33 1   
    35   25   26 2   
    36   25   42 1   
    37   26   27 1   
    38   27   28 ar  
    39   27   33 ar  
    40   28   29 1   
    41   28   30 ar  
    42   29   43 1   
    43   29   44 1   
    44   30   31 ar  
    45   31   32 ar  
    46   31   45 1   
    47   32   33 ar  
@<TRIPOS>SUBSTRUCTURE
     1 ATF         1 TEMP              0 ****  ****    0 ROOT
