@<TRIPOS>MOLECULE
molecule
   44    46     1     0     0
SMALL
bcc


@<TRIPOS>ATOM
      1 PG           0.0000     0.0000     0.0000 p5         1 ATG       1.233800
      2 O1G          1.4810     0.0000     0.0000 o          1 ATG      -0.762500
      3 O2G         -0.5360     0.0000     1.5190 o          1 ATG      -0.762500
      4 S3G         -0.7070    -1.7310    -0.9980 sh         1 ATG      -0.710200
      5 PB          -0.3630     2.8970    -0.5130 p5         1 ATG       1.495800
      6 O1B         -0.4350     3.1820     0.9370 o          1 ATG      -0.840500
      7 O2B          1.0650     3.3740    -1.0840 o          1 ATG      -0.840500
      8 O3B         -0.5370     1.3150    -0.7590 os         1 ATG      -0.707800
      9 PA          -2.1110     5.1920    -1.1930 p5         1 ATG       1.432800
     10 O1A         -2.1490     5.6280     0.2210 o          1 ATG      -0.842000
     11 O2A         -1.1520     6.1780    -2.0310 o          1 ATG      -0.842000
     12 O3A         -1.5380     3.6900    -1.2760 os         1 ATG      -0.723800
     13 O5'         -3.5970     5.2360    -1.8100 os         1 ATG      -0.587200
     14 C5'         -4.4150     6.4070    -1.7860 c3         1 ATG       0.235400
     15 C4'         -5.7580     6.1030    -2.4520 c3         1 ATG       0.117100
     16 O4'         -6.4920     5.1530    -1.6620 os         1 ATG      -0.370600
     17 C3'         -6.6070     7.3880    -2.5290 c3         1 ATG       0.083100
     18 O3'         -6.9130     7.7050    -3.8880 oh         1 ATG      -0.585800
     19 C2'         -7.8990     7.0360    -1.7500 c3         1 ATG       0.080100
     20 O2'         -9.0520     7.5580    -2.4140 oh         1 ATG      -0.575800
     21 C1'         -7.8910     5.4860    -1.7920 c3         1 ATG       0.250800
     22 N9          -8.6590     4.9360    -0.6730 na         1 ATG      -0.239000
     23 C8          -8.1720     4.6120     0.5580 cc         1 ATG       0.474700
     24 N7          -9.1290     4.1500     1.3080 nd         1 ATG      -0.614100
     25 C5         -10.2890     4.1490     0.6080 ca         1 ATG      -0.196200
     26 C6         -11.6130     3.7720     0.8910 ca         1 ATG       0.769200
     27 N6         -11.9570     3.2690     2.1340 nv         1 ATG      -1.004500
     28 N1         -12.5280     3.9100    -0.0630 nb         1 ATG      -0.852000
     29 C2         -12.2090     4.3880    -1.2520 ca         1 ATG       0.703900
     30 N3         -10.9830     4.7540    -1.5610 nb         1 ATG      -0.764000
     31 C4         -10.0030     4.6580    -0.6700 ca         1 ATG       0.463800
     32 HSG3         0.0130    -2.7820    -0.6260 hs         1 ATG       0.293800
     33 H5'1        -4.5810     6.7100    -0.7590 h1         1 ATG       0.030700
     34 H5'2        -3.9180     7.2060    -2.3230 h1         1 ATG       0.030700
     35 H4'         -5.6010     5.7080    -3.4480 h1         1 ATG       0.084700
     36 H3'         -6.0910     8.2100    -2.0490 h1         1 ATG       0.053700
     37 HO3'        -6.5630     8.5550    -4.0980 ho         1 ATG       0.394000
     38 H2'         -7.8390     7.3910    -0.7290 h1         1 ATG       0.054700
     39 HO2'        -9.3250     8.3550    -1.9900 ho         1 ATG       0.388000
     40 H1'         -8.2780     5.1310    -2.7400 h2         1 ATG       0.102700
     41 H8          -7.1390     4.7200     0.8650 h5         1 ATG       0.122800
     42 HN61       -11.3580     3.4270     2.9200 hn         1 ATG       0.440800
     43 HN62       -12.7870     2.7200     2.2390 hn         1 ATG       0.440800
     44 H2         -12.9940     4.4660    -1.9950 h5         1 ATG       0.043100
@<TRIPOS>BOND
     1     1     2 1
     2     1     3 1
     3     1     4 1
     4     1     8 1
     5     4    32 1
     6     5     6 1
     7     5     7 1
     8     5     8 1
     9     5    12 1
    10     9    10 1
    11     9    11 1
    12     9    12 1
    13     9    13 1
    14    13    14 1
    15    14    15 1
    16    14    33 1
    17    14    34 1
    18    15    16 1
    19    15    17 1
    20    15    35 1
    21    16    21 1
    22    17    18 1
    23    17    19 1
    24    17    36 1
    25    18    37 1
    26    19    20 1
    27    19    21 1
    28    19    38 1
    29    20    39 1
    30    21    22 1
    31    21    40 1
    32    22    23 1
    33    22    31 1
    34    23    24 2
    35    23    41 1
    36    24    25 1
    37    25    26 ar
    38    25    31 ar
    39    26    27 1
    40    26    28 ar
    41    27    42 1
    42    27    43 1
    43    28    29 ar
    44    29    30 ar
    45    29    44 1
    46    30    31 ar
@<TRIPOS>SUBSTRUCTURE
     1 ATG         1 TEMP              0 ****  ****    0 ROOT
