@<TRIPOS>MOLECULE
ATH
   16    15     1     0     0
SMALL
bcc


@<TRIPOS>ATOM
      1 C1          0.0050   -0.3770   -0.3960 c         1 ATH      0.903800
      2 C2          1.4110   -0.1060    0.0410 ce        1 ATH     -0.232200
      3 C3          1.9810    0.0190    1.2520 cf        1 ATH     -0.127400
      4 C4          1.2230   -0.0200    2.5500 c3        1 ATH      0.083300
      5 C5          1.2530    1.2700    3.4060 c         1 ATH      0.899600
      6 C6          3.4980    0.0790    1.3050 c         1 ATH      0.905800
      7 O1         -0.8420   -0.9910    0.3260 o         1 ATH     -0.903300
      8 O2         -0.3180   -0.0440   -1.5910 o         1 ATH     -0.903300
      9 O3          1.9460    1.2770    4.4740 o         1 ATH     -0.890800
     10 O4          0.5160    2.2600    3.1080 o         1 ATH     -0.890800
     11 O5          4.1430    0.8410    0.5150 o         1 ATH     -0.893300
     12 O6          4.1320   -0.6960    2.0950 o         1 ATH     -0.893300
     13 OH          1.6790   -1.1030    3.3600 oh        1 ATH     -0.651800
     14 H2          2.0820   -0.0110   -0.8360 ha        1 ATH      0.089000
     15 H4          0.1430   -0.2680    2.3300 h1        1 ATH      0.081700
     16 HH          2.6000   -0.8910    3.5780 ho        1 ATH      0.423000
@<TRIPOS>BOND
     1    1    2 1   
     2    1    7 1   
     3    1    8 1   
     4    2    3 2   
     5    2   14 1   
     6    3    4 1   
     7    3    6 1   
     8    4    5 1   
     9    4   13 1   
    10    4   15 1   
    11    5    9 1   
    12    5   10 1   
    13    6   11 1   
    14    6   12 1   
    15   13   16 1   
@<TRIPOS>SUBSTRUCTURE
     1 ATH         1 TEMP              0 ****  ****    0 ROOT
