@<TRIPOS>MOLECULE
molecule
   16    15     1     0     0
SMALL
bcc


@<TRIPOS>ATOM
      1 C1           0.0000     0.0000     0.0000 c          1 ATH       0.938800
      2 C2           1.4780     0.0000     0.0000 ce         1 ATH      -0.614200
      3 C3           2.1500     0.0000     1.1630 cf         1 ATH       0.098600
      4 C4           1.4280    -0.3070     2.4500 c3         1 ATH       0.003300
      5 C5           1.1580     0.9760     3.1920 c          1 ATH       0.919600
      6 C6           3.5940     0.3010     1.1810 c          1 ATH       0.902800
      7 O1          -0.6380     0.1340     1.0990 o          1 ATH      -0.885800
      8 O2          -0.6390    -0.1320    -1.0980 o          1 ATH      -0.885800
      9 O3           1.7150     1.1910     4.3200 o          1 ATH      -0.864800
     10 O4           0.3720     1.8480     2.6940 o          1 ATH      -0.864800
     11 O5           4.2010     0.4460     0.1290 o          1 ATH      -0.853800
     12 O6           4.1840     0.4070     2.2460 o          1 ATH      -0.853800
     13 OH           2.2380    -1.1630     3.2570 oh         1 ATH      -0.585800
     14 H2           0.9640    -0.9530     0.0400 ha         1 ATH       0.165000
     15 H4           0.4900    -0.8010     2.2290 h1         1 ATH       0.065700
     16 HH           1.7060    -1.8540     3.6150 ho         1 ATH       0.316000
@<TRIPOS>BOND
     1     1     2 1
     2     1     7 1
     3     1     8 1
     4     2     3 2
     5     2    14 1
     6     3     4 1
     7     3     6 1
     8     4     5 1
     9     4    13 1
    10     4    15 1
    11     5     9 1
    12     5    10 1
    13     6    11 1
    14     6    12 1
    15    13    16 1
@<TRIPOS>SUBSTRUCTURE
     1 ATH         1 TEMP              0 ****  ****    0 ROOT
