@<TRIPOS>MOLECULE
molecule
   70    69     1     0     0
SMALL
bcc


@<TRIPOS>ATOM
      1 N1           0.0000     0.0000     0.0000 nz         1 ATI      -0.802600
      2 C2           1.4690     0.0000     0.0000 c3         1 ATI       0.111500
      3 C3           1.9800     0.0000     1.4420 c3         1 ATI       0.045100
      4 O4           1.6020    -1.2210     2.0810 oh         1 ATI      -0.591800
      5 C5           1.9790    -1.2500    -0.7220 c3         1 ATI      -0.104400
      6 C6           1.5740    -1.1890    -2.1950 c3         1 ATI      -0.093700
      7 C7           2.2830    -0.0140    -2.8710 c3         1 ATI      -0.093100
      8 C8           1.9730    -2.4930    -2.8890 c3         1 ATI      -0.093100
      9 C9           1.3790     1.1640     2.1870 c          1 ATI       0.584100
     10 O10          0.6220     0.9660     3.1140 o          1 ATI      -0.569100
     11 N11          1.6830     2.4260     1.8240 ns         1 ATI      -0.544900
     12 C12          1.0990     3.5580     2.5490 c3         1 ATI       0.029700
     13 C13          1.0660     4.7660     1.6490 c          1 ATI       0.643100
     14 O14          1.4870     4.6900     0.5150 o          1 ATI      -0.667100
     15 C15          1.9470     3.8650     3.7840 c3         1 ATI      -0.085700
     16 C16          1.9820     2.6380     4.6980 c3         1 ATI      -0.094100
     17 C17          3.3720     4.2170     3.3500 c3         1 ATI      -0.094100
     18 N18          0.5670     5.9320     2.1060 ns         1 ATI      -0.508900
     19 C19          0.5330     7.1070     1.2320 c3         1 ATI       0.030700
     20 C20         -0.5580     8.0420     1.6860 c          1 ATI       0.653100
     21 O21         -0.9180     8.0360     2.8440 o          1 ATI      -0.651100
     22 C22          1.8810     7.8290     1.2960 c3         1 ATI      -0.080700
     23 C23          2.2270     8.1350     2.7540 c3         1 ATI      -0.089100
     24 C24          2.9660     6.9350     0.6920 c3         1 ATI      -0.089100
     25 N25         -1.1360     8.8830     0.8060 ns         1 ATI      -0.473900
     26 C26         -2.1180     9.8660     1.2680 c3         1 ATI       0.023700
     27 C27         -3.4810     9.2240     1.3270 c          1 ATI       0.890600
     28 O28         -4.5420     9.9410     1.7260 o          1 ATI      -0.868800
     29 C29         -2.1520    11.0480     0.2970 c3         1 ATI      -0.179400
     30 C30         -0.8270    11.7640     0.3300 c          1 ATI       0.883600
     31 O31         -0.6260    12.8400    -0.4470 o          1 ATI      -0.877300
     32 O32          0.0550    11.3690     1.0550 o          1 ATI      -0.877300
     33 O33         -3.6160     8.0650     1.0150 o          1 ATI      -0.868800
     34 HN11        -0.3340     0.2970    -0.8950 hn         1 ATI       0.462800
     35 HN12        -0.3340    -0.9240     0.1900 hn         1 ATI       0.462800
     36 H2           1.8300     0.8840    -0.5110 hx         1 ATI       0.129700
     37 H3           3.0590     0.0890     1.4420 h1         1 ATI       0.092700
     38 HO4          2.3010    -1.5100     2.6440 ho         1 ATI       0.442000
     39 H51          3.0580    -1.2960    -0.6450 hc         1 ATI       0.084200
     40 H52          1.5470    -2.1320    -0.2650 hc         1 ATI       0.084200
     41 H6           0.5010    -1.0540    -2.2690 hc         1 ATI       0.026700
     42 H71          1.6860     0.8830    -2.7560 hc         1 ATI       0.049367
     43 H72          2.4110    -0.2280    -3.9250 hc         1 ATI       0.049367
     44 H73          3.2520     0.1350    -2.4120 hc         1 ATI       0.049367
     45 H81          3.0500    -2.6070    -2.8500 hc         1 ATI       0.049367
     46 H82          1.5020    -3.3280    -2.3850 hc         1 ATI       0.049367
     47 H83          1.6500    -2.4660    -3.9220 hc         1 ATI       0.049367
     48 H11          2.3140     2.5900     1.0650 hn         1 ATI       0.334500
     49 H12          0.0910     3.3080     2.8560 h1         1 ATI       0.096700
     50 H15          1.5150     4.7010     4.3200 hc         1 ATI       0.086700
     51 H161         0.9830     2.2290     4.7930 hc         1 ATI       0.040200
     52 H162         2.6390     1.8890     4.2720 hc         1 ATI       0.040200
     53 H163         2.3490     2.9260     5.6750 hc         1 ATI       0.040200
     54 H171         3.6360     5.1940     3.7380 hc         1 ATI       0.040200
     55 H172         4.0610     3.4760     3.7370 hc         1 ATI       0.040200
     56 H173         3.4270     4.2320     2.2690 hc         1 ATI       0.040200
     57 H18          0.2150     5.9930     3.0410 hn         1 ATI       0.344500
     58 H19          0.3390     6.7940     0.2130 h1         1 ATI       0.074700
     59 H22          1.8220     8.7540     0.7360 hc         1 ATI       0.106700
     60 H231         1.8980     9.1370     3.0010 hc         1 ATI       0.031033
     61 H232         3.2990     8.0630     2.8940 hc         1 ATI       0.031033
     62 H233         1.7300     7.4220     3.4010 hc         1 ATI       0.031033
     63 H241         3.2880     6.2090     1.4290 hc         1 ATI       0.031033
     64 H242         3.8110     7.5450     0.3940 hc         1 ATI       0.031033
     65 H243         2.5690     6.4200    -0.1740 hc         1 ATI       0.031033
     66 H25         -0.8860     8.8420    -0.1630 hn         1 ATI       0.298500
     67 H26         -1.8410    10.2170     2.2550 h1         1 ATI       0.086700
     68 H291        -2.3420    10.6860    -0.7060 hc         1 ATI       0.049700
     69 H292        -2.9400    11.7320     0.5890 hc         1 ATI       0.049700
     70 H13         -0.3340     0.6250     0.7070 hn         1 ATI       0.462800
@<TRIPOS>BOND
     1     1     2 1
     2     1    34 1
     3     1    35 1
     4     2     3 1
     5     2     5 1
     6     2    36 1
     7     3     4 1
     8     3     9 1
     9     3    37 1
    10     4    38 1
    11     5     6 1
    12     5    39 1
    13     5    40 1
    14     6     7 1
    15     6     8 1
    16     6    41 1
    17     7    42 1
    18     7    43 1
    19     7    44 1
    20     8    45 1
    21     8    46 1
    22     8    47 1
    23     9    10 2
    24     9    11 1
    25    11    12 1
    26    11    48 1
    27    12    13 1
    28    12    15 1
    29    12    49 1
    30    13    14 2
    31    13    18 1
    32    15    16 1
    33    15    17 1
    34    15    50 1
    35    16    51 1
    36    16    52 1
    37    16    53 1
    38    17    54 1
    39    17    55 1
    40    17    56 1
    41    18    19 1
    42    18    57 1
    43    19    20 1
    44    19    22 1
    45    19    58 1
    46    20    21 2
    47    20    25 1
    48    22    23 1
    49    22    24 1
    50    22    59 1
    51    23    60 1
    52    23    61 1
    53    23    62 1
    54    24    63 1
    55    24    64 1
    56    24    65 1
    57    25    26 1
    58    25    66 1
    59    26    27 1
    60    26    29 1
    61    26    67 1
    62    27    28 1
    63    27    33 1
    64    29    30 1
    65    29    68 1
    66    29    69 1
    67    30    31 1
    68    30    32 1
    69    70     1 1
@<TRIPOS>SUBSTRUCTURE
     1 ATI         1 TEMP              0 ****  ****    0 ROOT
