@<TRIPOS>MOLECULE
molecule
   12    11     1     0     0
SMALL
bcc


@<TRIPOS>ATOM
      1 P            0.0000     0.0000     0.0000 p5         1 ATJ       1.090800
      2 OA1          1.6260     0.0000     0.0000 o          1 ATJ      -0.782000
      3 O1          -0.5560     0.0000     1.4000 o          1 ATJ      -0.782000
      4 O2B         -0.3040     1.3950    -0.7770 os         1 ATJ      -0.527200
      5 C2B         -1.6250     1.6380    -1.2290 c3         1 ATJ       0.175400
      6 C1B         -1.6700     2.9860    -1.9180 c3         1 ATJ      -0.092100
      7 H2B1        -1.9180     0.8640    -1.9270 h1         1 ATJ       0.006200
      8 H2B2        -2.3020     1.6400    -0.3840 h1         1 ATJ       0.006200
      9 H1B1        -0.9560     2.9990    -2.7330 hc         1 ATJ       0.028367
     10 H1B2        -2.6660     3.1590    -2.3080 hc         1 ATJ       0.028367
     11 H1B3        -1.4200     3.7640    -1.2070 hc         1 ATJ       0.028367
     12 HP1         -0.5060    -1.0760    -0.7490 hp         1 ATJ      -0.181400
@<TRIPOS>BOND
     1     1     2 1
     2     1     3 1
     3     1     4 1
     4     4     5 1
     5     5     6 1
     6     5     7 1
     7     5     8 1
     8     6     9 1
     9     6    10 1
    10     6    11 1
    11    12     1 1
@<TRIPOS>SUBSTRUCTURE
     1 ATJ         1 TEMP              0 ****  ****    0 ROOT
