@<TRIPOS>MOLECULE
ATJ
   12    11     1     0     0
SMALL
bcc


@<TRIPOS>ATOM
      1 P           0.0480   -0.0150   -0.0410 p5        1 ATJ      1.343800
      2 OA1         1.4830   -0.0700    0.3000 o         1 ATJ     -0.850500
      3 O1         -1.0440   -0.0580    0.9570 o         1 ATJ     -0.850500
      4 O2B        -0.1830    1.3670   -0.9350 os        1 ATJ     -0.576200
      5 C2B        -1.5340    1.6680   -1.1100 c3        1 ATJ      0.173400
      6 C1B        -1.6740    2.9500   -1.9030 c3        1 ATJ     -0.091100
      7 H2B1       -2.0250    0.8130   -1.6570 h1        1 ATJ      0.018200
      8 H2B2       -2.0240    1.7610   -0.1010 h1        1 ATJ      0.018200
      9 H1B1       -2.7540    3.1910   -2.0470 hc        1 ATJ      0.020033
     10 H1B2       -1.1870    2.8450   -2.9010 hc        1 ATJ      0.020033
     11 H1B3       -1.1810    3.7910   -1.3610 hc        1 ATJ      0.020033
     12 HP1        -0.2240   -0.8960   -1.0010 hp        1 ATJ     -0.246400
@<TRIPOS>BOND
     1    1    2 1   
     2    1    3 1   
     3    1    4 1   
     4    1   12 1   
     5    4    5 1   
     6    5    6 1   
     7    5    7 1   
     8    5    8 1   
     9    6    9 1   
    10    6   10 1   
    11    6   11 1   
@<TRIPOS>SUBSTRUCTURE
     1 ATJ         1 TEMP              0 ****  ****    0 ROOT
