@<TRIPOS>MOLECULE
ATK
   51    55     1     0     0
SMALL
bcc


@<TRIPOS>ATOM
      1 N1           0.0000     0.0000     0.0000 nb         1 ATK      -0.509000
      2 N4           1.3530     0.0010     2.3530 nb         1 ATK      -0.608000
      3 C11          1.3210     0.0000     0.0000 ca         1 ATK       0.232900
      4 C12          2.0180     0.0000     1.2050 ca         1 ATK       0.262500
      5 N13          3.4130     0.0000     1.2030 na         1 ATK       0.484100
      6 C14          0.0270     0.0010     2.3490 ca         1 ATK       0.251500
      7 C15         -0.6630     0.0000     1.1420 ca         1 ATK       0.232900
      8 N15         -0.6750     0.0010     3.5570 na         1 ATK       0.437100
      9 C17          4.2110     0.4730     2.2170 ca         1 ATK      -0.112200
     10 C18          5.5450     0.2810     1.8060 ca         1 ATK      -0.309900
     11 N20          4.2240    -0.4870     0.1740 nc         1 ATK      -0.662100
     12 C28          5.4810    -0.3360     0.4840 cd         1 ATK       0.456800
     13 C35         -2.0320    -0.0950     3.6900 cc         1 ATK      -0.361300
     14 C36         -2.3300    -0.0610     5.0050 cd         1 ATK      -0.030300
     15 C37         -1.1150     0.0600     5.7100 cd         1 ATK      -0.134000
     16 C38         -0.1190     0.0910     4.8030 cc         1 ATK      -0.341300
     17 C44          6.5950     0.6730     2.6430 ca         1 ATK       0.019000
     18 N44          4.7460     2.0130     5.5110 nu         1 ATK      -0.416600
     19 C45          6.3240     1.2390     3.8540 ca         1 ATK      -0.221000
     20 C46          5.0050     1.4320     4.2670 ca         1 ATK       0.099600
     21 C47          3.9520     1.0520     3.4560 ca         1 ATK      -0.201000
     22 C48          5.8570     2.4170     6.3750 c3         1 ATK       0.132500
     23 C57          5.4030     2.4300     7.8460 c3         1 ATK      -0.041900
     24 C58          5.5800     3.8780     8.3490 c3         1 ATK      -0.024900
     25 C59          5.5330     4.7360     7.0600 c3         1 ATK      -0.024900
     26 C60          6.2940     3.8580     6.0370 c3         1 ATK      -0.041900
     27 O61         -3.2750    -2.4540     5.5950 o          1 ATK      -0.896300
     28 O63         -5.2510    -1.8910     6.4090 o          1 ATK      -0.896300
     29 C66         -3.7080    -0.1380     5.6080 c3         1 ATK      -0.062100
     30 C68         -4.0610    -1.5800     5.8700 c          1 ATK       0.980600
     31 H11          1.8620    -0.0000    -0.9380 h4         1 ATK       0.006100
     32 H15         -1.7460     0.0000     1.1390 h4         1 ATK       0.011100
     33 H28          6.2260    -0.6780    -0.2240 h4         1 ATK       0.007800
     34 H35         -2.7450    -0.1830     2.8790 h4         1 ATK       0.150000
     35 H37         -1.0030     0.1130     6.7860 ha         1 ATK       0.121000
     36 H38          0.9380     0.1780     5.0220 h4         1 ATK       0.140000
     37 H44          7.6220     0.5270     2.3300 ha         1 ATK       0.093000
     38 HN44         3.8020     2.1250     5.8240 hn         1 ATK       0.301800
     39 H45          7.1400     1.5400     4.5010 ha         1 ATK       0.116000
     40 H47          2.9350     1.1070     3.8260 ha         1 ATK       0.143000
     41 H48          6.6940     1.7400     6.2540 h1         1 ATK       0.038700
     42 H57          4.3620     2.1400     7.9140 hc         1 ATK       0.023200
     43 H57A         6.0210     1.7580     8.4300 hc         1 ATK       0.023200
     44 H58          6.5370     3.9910     8.8440 hc         1 ATK       0.015450
     45 H58A         4.7680     4.1480     9.0130 hc         1 ATK       0.015450
     46 H59          4.5090     4.8930     6.7430 hc         1 ATK       0.015450
     47 H59A         6.0450     5.6790     7.2100 hc         1 ATK       0.015450
     48 H60          6.0000     4.1140     5.0260 hc         1 ATK       0.023200
     49 H60A         7.3640     3.9680     6.1670 hc         1 ATK       0.023200
     50 H66         -4.4270     0.2910     4.9220 hc         1 ATK       0.010700
     51 H66A        -3.7250     0.4130     6.5410 hc         1 ATK       0.010700
@<TRIPOS>BOND
     1     1     3 ar  
     2     1     7 ar  
     3     2     4 ar  
     4     2     6 ar  
     5     3     4 ar  
     6     3    31 1   
     7     4     5 1   
     8     5     9 1   
     9     5    11 1   
    10     6     7 ar  
    11     6     8 1   
    12     7    32 1   
    13     8    13 1   
    14     8    16 1   
    15     9    10 ar  
    16     9    21 ar  
    17    10    12 1   
    18    10    17 ar  
    19    11    12 2   
    20    12    33 1   
    21    13    14 2   
    22    13    34 1   
    23    14    15 1   
    24    14    29 1   
    25    15    16 2   
    26    15    35 1   
    27    16    36 1   
    28    17    19 ar  
    29    17    37 1   
    30    18    20 1   
    31    18    22 1   
    32    18    38 1   
    33    19    20 ar  
    34    19    39 1   
    35    20    21 ar  
    36    21    40 1   
    37    22    23 1   
    38    22    26 1   
    39    22    41 1   
    40    23    24 1   
    41    23    42 1   
    42    23    43 1   
    43    24    25 1   
    44    24    44 1   
    45    24    45 1   
    46    25    26 1   
    47    25    46 1   
    48    25    47 1   
    49    26    48 1   
    50    26    49 1   
    51    27    30 1   
    52    28    30 1   
    53    29    30 1   
    54    29    50 1   
    55    29    51 1   
@<TRIPOS>SUBSTRUCTURE
     1 ATK         1 TEMP              0 ****  ****    0 ROOT
