@<TRIPOS>MOLECULE
molecule
   10     9     1     0     0
SMALL
bcc


@<TRIPOS>ATOM
      1 C1           0.0000     0.0000     0.0000 c3         1 ATO      -0.192100
      2 C2           1.5060     0.0000     0.0000 c          1 ATO       0.544100
      3 C3           2.2600     0.0000     1.3040 c3         1 ATO      -0.061000
      4 O4           2.1100    -0.0000    -1.0460 o          1 ATO      -0.490100
      5 Cl           4.0320    -0.0000     0.9740 cl         1 ATO      -0.160400
      6 H13         -0.3610    -0.8850     0.5110 hc         1 ATO       0.064367
      7 H12         -0.3610    -0.0000    -1.0210 hc         1 ATO       0.064367
      8 H11         -0.3610     0.8850     0.5110 hc         1 ATO       0.064367
      9 H32          1.9990     0.8840     1.8720 h1         1 ATO       0.082700
     10 H31          1.9990    -0.8840     1.8720 h1         1 ATO       0.082700
@<TRIPOS>BOND
     1     1     2 1
     2     1     6 1
     3     1     7 1
     4     1     8 1
     5     2     3 1
     6     2     4 2
     7     3     5 1
     8     3     9 1
     9     3    10 1
@<TRIPOS>SUBSTRUCTURE
     1 ATO         1 TEMP              0 ****  ****    0 ROOT
