@<TRIPOS>MOLECULE
ATO
   10     9     1     0     0
SMALL
bcc


@<TRIPOS>ATOM
      1 C1          0.0520   -0.0020    0.0260 c3        1 ATO     -0.206100
      2 C2          1.5450    0.0000   -0.0910 c         1 ATO      0.558100
      3 C3          2.2400    0.0020    1.2430 c3        1 ATO     -0.083000
      4 O4          2.1210    0.0010   -1.1790 o         1 ATO     -0.494100
      5 CL          3.9820    0.0020    1.1760 cl        1 ATO     -0.146400
      6 H13        -0.2840   -0.9110    0.5810 hc        1 ATO      0.067367
      7 H12        -0.4200   -0.0030   -0.9870 hc        1 ATO      0.067367
      8 H11        -0.2870    0.9050    0.5820 hc        1 ATO      0.067367
      9 H32         1.9370    0.9170    1.8120 h1        1 ATO      0.084700
     10 H31         1.9370   -0.9100    1.8150 h1        1 ATO      0.084700
@<TRIPOS>BOND
     1    1    2 1   
     2    1    6 1   
     3    1    7 1   
     4    1    8 1   
     5    2    3 1   
     6    2    4 2   
     7    3    5 1   
     8    3    9 1   
     9    3   10 1   
@<TRIPOS>SUBSTRUCTURE
     1 ATO         1 TEMP              0 ****  ****    0 ROOT
