@<TRIPOS>MOLECULE
molecule
   43    45     1     0     0
SMALL
bcc


@<TRIPOS>ATOM
      1 PG           0.0000     0.0000     0.0000 p5         1 ATP       1.204900
      2 O1G          1.4800     0.0000     0.0000 o          1 ATP      -0.798833
      3 O2G         -0.5360     0.0000     1.5180 o          1 ATP      -0.798833
      4 O3G         -0.5370    -1.3140    -0.7580 o          1 ATP      -0.798833
      5 PB           0.0330     1.2490    -2.2630 p5         1 ATP       1.269800
      6 O1B          1.5120     1.2310    -2.2280 o          1 ATP      -0.687500
      7 O2B         -0.5030    -0.0860    -2.9830 o          1 ATP      -0.687500
      8 O3B         -0.5380     1.3140    -0.7590 os         1 ATP      -0.655800
      9 PA           0.1370     2.4120    -4.5690 p5         1 ATP       1.252800
     10 O1A         -0.3600     1.1660    -5.1960 o          1 ATP      -0.791500
     11 O2A          1.7440     2.3720    -4.4920 o          1 ATP      -0.791500
     12 O3A         -0.4680     2.5410    -3.0830 os         1 ATP      -0.646800
     13 O5'         -0.3280     3.6770    -5.4490 os         1 ATP      -0.535200
     14 C5'          0.2370     3.5040    -6.7500 c3         1 ATP       0.169400
     15 C4'         -0.1680     4.6790    -7.6420 c3         1 ATP       0.129100
     16 O4'          0.3380     5.9190    -7.1010 os         1 ATP      -0.368600
     17 C3'          0.4940     4.5570    -9.0320 c3         1 ATP       0.082100
     18 O3'         -0.4200     3.9920    -9.9740 oh         1 ATP      -0.589800
     19 C2'          0.8370     6.0150    -9.4160 c3         1 ATP       0.075100
     20 O2'          0.1470     6.3950   -10.6080 oh         1 ATP      -0.577800
     21 C1'          0.3450     6.8440    -8.2090 c3         1 ATP       0.255800
     22 N9           1.2620     7.9530    -7.9430 na         1 ATP      -0.263000
     23 C8           2.3640     7.9130    -7.1420 cc         1 ATP       0.351700
     24 N7           2.9500     9.0760    -7.1320 nd         1 ATP      -0.618100
     25 C5           2.2660     9.9310    -7.9300 ca         1 ATP      -0.242200
     26 C6           2.4170    11.2810    -8.2900 ca         1 ATP       0.648200
     27 N6           3.4710    12.0310    -7.7990 nv         1 ATP      -1.024500
     28 N1           1.5270    11.8190    -9.1170 nb         1 ATP      -0.823000
     29 C2           0.5180    11.1120    -9.5890 ca         1 ATP       0.548900
     30 N3           0.3340     9.8460    -9.2760 nb         1 ATP      -0.815000
     31 C4           1.1730     9.2230    -8.4560 ca         1 ATP       0.472800
     32 H5'1        -0.1270     2.5800    -7.1820 h1         1 ATP       0.058200
     33 H5'2         1.3170     3.4650    -6.6720 h1         1 ATP       0.058200
     34 H4'         -1.2460     4.7280    -7.7440 h1         1 ATP       0.063700
     35 H3'          1.3970     3.9620    -8.9670 h1         1 ATP       0.054700
     36 HO3'        -0.0070     3.2690   -10.4170 ho         1 ATP       0.384000
     37 H2'          1.9070     6.1300    -9.5380 h1         1 ATP       0.045700
     38 HO2'         0.7520     6.4050   -11.3320 ho         1 ATP       0.379000
     39 H1'         -0.6570     7.2130    -8.3930 h2         1 ATP       0.085700
     40 H8           2.7020     7.0430    -6.5930 h5         1 ATP       0.088800
     41 HN61         3.5690    12.9910    -8.0640 hn         1 ATP       0.413800
     42 HN62         4.1360    11.6130    -7.1790 hn         1 ATP       0.413800
     43 H2          -0.1850    11.5900   -10.2610 h5         1 ATP       0.006100
@<TRIPOS>BOND
     1     1     2 1
     2     1     3 1
     3     1     4 1
     4     1     8 1
     5     5     6 1
     6     5     7 1
     7     5     8 1
     8     5    12 1
     9     9    10 1
    10     9    11 1
    11     9    12 1
    12     9    13 1
    13    13    14 1
    14    14    15 1
    15    14    32 1
    16    14    33 1
    17    15    16 1
    18    15    17 1
    19    15    34 1
    20    16    21 1
    21    17    18 1
    22    17    19 1
    23    17    35 1
    24    18    36 1
    25    19    20 1
    26    19    21 1
    27    19    37 1
    28    20    38 1
    29    21    22 1
    30    21    39 1
    31    22    23 1
    32    22    31 1
    33    23    24 2
    34    23    40 1
    35    24    25 1
    36    25    26 ar
    37    25    31 ar
    38    26    27 1
    39    26    28 ar
    40    27    41 1
    41    27    42 1
    42    28    29 ar
    43    29    30 ar
    44    29    43 1
    45    30    31 ar
@<TRIPOS>SUBSTRUCTURE
     1 ATP         1 TEMP              0 ****  ****    0 ROOT
