@<TRIPOS>MOLECULE
molecule
   13    13     1     0     0
SMALL
bcc


@<TRIPOS>ATOM
      1 N1           0.0000     0.0000     0.0000 n2         1 ATQ      -0.550900
      2 C2           1.2960     0.0000     0.0000 c2         1 ATQ       0.435100
      3 S3           1.7860     0.0000     1.7120 ss         1 ATQ      -0.219300
      4 C4           0.1230     0.0080     2.4870 c3         1 ATQ       0.004700
      5 C5          -0.7660     0.0030     1.2240 c3         1 ATQ       0.110800
      6 N2           2.1240    -0.0030    -1.0990 nz         1 ATQ      -0.700600
      7 H41         -0.0360    -0.8850     3.0790 h1         1 ATQ       0.117200
      8 H42         -0.0320     0.9080     3.0690 h1         1 ATQ       0.117200
      9 H51         -1.3930    -0.8800     1.2440 h1         1 ATQ       0.125700
     10 H52         -1.3950     0.8850     1.2390 h1         1 ATQ       0.125700
     11 HN21         1.9200     0.7920    -1.6720 hn         1 ATQ       0.478133
     12 HN22         3.0770     0.0370    -0.7980 hn         1 ATQ       0.478133
     13 H23          1.9750    -0.8410    -1.6260 hn         1 ATQ       0.478133
@<TRIPOS>BOND
     1     1     2 2
     2     1     5 1
     3     2     3 1
     4     2     6 1
     5     3     4 1
     6     4     5 1
     7     4     7 1
     8     4     8 1
     9     5     9 1
    10     5    10 1
    11     6    11 1
    12     6    12 1
    13    13     6 1
@<TRIPOS>SUBSTRUCTURE
     1 ATQ         1 TEMP              0 ****  ****    0 ROOT
