@<TRIPOS>MOLECULE
ATR
   42    44     1     0     0
SMALL
bcc


@<TRIPOS>ATOM
      1 PB           0.0000     0.0000     0.0000 p5         1 ATR       0.710900
      2 O1B          1.4790     0.0000     0.0000 o          1 ATR      -0.790167
      3 O2B         -0.5380     0.0000     1.5180 o          1 ATR      -0.790167
      4 O3B         -0.5360    -1.3140    -0.7590 o          1 ATR      -0.790167
      5 PA           0.0360     1.2500    -2.2630 p5         1 ATR       0.836800
      6 O1A         -0.4580     0.0220    -2.9250 o          1 ATR      -0.677500
      7 O2A          1.6450     1.2290    -2.2240 o          1 ATR      -0.677500
      8 O3A         -0.5360     1.3150    -0.7590 os         1 ATR      -0.459800
      9 O5'         -0.4640     2.5420    -3.0840 os         1 ATR      -0.486200
     10 C5'          0.0730     2.4260    -4.4020 c3         1 ATR       0.241400
     11 C4'         -0.3670     3.6290    -5.2390 c3         1 ATR       0.139100
     12 O4'          0.1360     4.8530    -4.6630 os         1 ATR      -0.397600
     13 C3'          0.2650     3.5670    -6.6470 c3         1 ATR       0.137100
     14 O3'         -0.6620     3.0260    -7.5900 oh         1 ATR      -0.562800
     15 C2'          0.5810     5.0430    -6.9820 c3         1 ATR       0.171100
     16 O2'         -0.1410     5.4580    -8.1440 os         1 ATR      -0.414200
     17 P2'          0.9520     5.9380    -9.2240 p5         1 ATR       0.675900
     18 O1P          1.8590     4.8130    -9.5430 o          1 ATR      -0.775167
     19 O2P          0.2050     6.4230   -10.5660 o          1 ATR      -0.775167
     20 O3P          1.8060     7.1600    -8.6150 o          1 ATR      -0.775167
     21 C1'          0.1050     5.8200    -5.7350 c3         1 ATR       0.073800
     22 N9           1.0160     6.9300    -5.4470 na         1 ATR       0.311000
     23 C8           2.1350     6.8740    -4.6720 cc         1 ATR       0.297700
     24 N7           2.7060     8.0430    -4.6320 nd         1 ATR      -0.604100
     25 C5           1.9940     8.9190    -5.3800 ca         1 ATR      -0.197200
     26 C6           2.1190    10.2840    -5.6920 ca         1 ATR       0.542200
     27 N6           3.1750    11.0280    -5.1970 nv         1 ATR      -0.584500
     28 N1           1.2040    10.8410    -6.4770 nb         1 ATR      -0.766000
     29 C2           0.1930    10.1380    -6.9550 ca         1 ATR       0.595900
     30 N3           0.0320     8.8590    -6.6860 nb         1 ATR      -0.522000
     31 C4           0.8970     8.2160    -5.9090 ca         1 ATR       0.300800
     32 H5'1         1.1550     2.3990    -4.3500 h1         1 ATR       0.007700
     33 H5'2        -0.2900     1.5140    -4.8610 h1         1 ATR       0.007700
     34 H4'         -1.4470     3.6670    -5.3150 h1         1 ATR       0.007700
     35 H3'          1.1770     2.9820    -6.6250 h1         1 ATR       0.013700
     36 HO3'        -0.2950     2.2520    -7.9840 ho         1 ATR       0.362000
     37 H2'          1.6470     5.1770    -7.1240 h1         1 ATR       0.061700
     38 H1'         -0.9050     6.1820    -5.8820 h2         1 ATR       0.041700
     39 H8           2.4950     5.9880    -4.1640 h5         1 ATR       0.050800
     40 HN61         3.0420    11.9930    -4.9670 hn         1 ATR       0.246300
     41 HN62         4.0790    10.6110    -5.0990 hn         1 ATR       0.246300
     42 H2          -0.5300    10.6320    -7.5920 h5         1 ATR      -0.036900
@<TRIPOS>BOND
     1     1     2 1   
     2     1     3 1   
     3     1     4 1   
     4     1     8 1   
     5     5     6 1   
     6     5     7 1   
     7     5     8 1   
     8     5     9 1   
     9     9    10 1   
    10    10    11 1   
    11    10    32 1   
    12    10    33 1   
    13    11    12 1   
    14    11    13 1   
    15    11    34 1   
    16    12    21 1   
    17    13    14 1   
    18    13    15 1   
    19    13    35 1   
    20    14    36 1   
    21    15    16 1   
    22    15    21 1   
    23    15    37 1   
    24    16    17 1   
    25    17    18 1   
    26    17    19 1   
    27    17    20 1   
    28    21    22 1   
    29    21    38 1   
    30    22    23 1   
    31    22    31 1   
    32    23    24 2   
    33    23    39 1   
    34    24    25 1   
    35    25    26 ar  
    36    25    31 ar  
    37    26    27 1   
    38    26    28 ar  
    39    27    40 1   
    40    27    41 1   
    41    28    29 ar  
    42    29    30 ar  
    43    29    42 1   
    44    30    31 ar  
@<TRIPOS>SUBSTRUCTURE
     1 ATR         1 TEMP              0 ****  ****    0 ROOT
