@<TRIPOS>MOLECULE
ATT
   37    38     1     0     0
SMALL
bcc


@<TRIPOS>ATOM
      1 C1           1.5070     0.0000     0.0000 c3         1 ATT      -0.035300
      2 C2           0.0000     0.0000     0.0000 c          1 ATT       0.558100
      3 C3          -2.1390    -0.5820     1.0090 c3         1 ATT       0.087300
      4 C7           5.5960    -0.6530    -1.7580 ca         1 ATT      -0.093500
      5 C8           6.2870    -1.2510    -0.7210 ca         1 ATT      -0.096000
      6 C9           5.5960    -1.8480     0.3150 ca         1 ATT      -0.093500
      7 C10          4.2130    -1.8490     0.3150 ca         1 ATT      -0.097500
      8 C11          2.9010     2.3720     3.9440 cc         1 ATT       0.487300
      9 C12          3.4710     4.4450     5.5560 cc         1 ATT       0.597700
     10 N3           3.0390     4.6670     4.3290 nd         1 ATT      -0.228000
     11 N4           2.7520     3.6050     3.5040 nd         1 ATT      -0.343000
     12 S1           3.4880     2.6600     5.6060 ss         1 ATT      -0.498800
     13 S2           3.9160     5.6020     6.8090 sh         1 ATT      -0.329100
     14 N            2.6690     1.1660     3.2860 ns         1 ATT      -0.058400
     15 C            2.2200     1.1670     2.0160 c          1 ATT       0.541100
     16 O            2.0170     2.2190     1.4430 o          1 ATT      -0.601100
     17 N1           1.9950     0.0000     1.3810 ns         1 ATT      -0.221900
     18 O1          -0.6070     0.5260    -0.9100 o          1 ATT      -0.620100
     19 N2          -0.6750    -0.5830     1.0090 ns         1 ATT      -0.197900
     20 C4           2.0170    -1.2490    -0.7220 c3         1 ATT       0.028900
     21 C5           3.5230    -1.2490    -0.7220 ca         1 ATT      -0.100300
     22 C6           4.2140    -0.6570    -1.7610 ca         1 ATT      -0.097500
     23 H1           1.8680     0.8850    -0.5100 h1         1 ATT       0.098700
     24 H31         -2.5000     0.4390     1.0040 h1         1 ATT       0.011033
     25 H32         -2.5010    -1.0890     1.8960 h1         1 ATT       0.011033
     26 H33         -2.5010    -1.0970     0.1270 h1         1 ATT       0.011033
     27 H7           6.1380    -0.1860    -2.5710 ha         1 ATT       0.104500
     28 H8           7.3700    -1.2490    -0.7190 ha         1 ATT       0.105000
     29 H9           6.1370    -2.3170     1.1280 ha         1 ATT       0.104500
     30 H10          3.6710    -2.3170     1.1280 ha         1 ATT       0.103500
     31 HS2          2.9030     5.7500     7.6540 hs         1 ATT       0.197800
     32 HN           2.8150     0.2990     3.7640 hn         1 ATT       0.168500
     33 HN1          2.1220    -0.8660     1.8670 hn         1 ATT       0.169500
     34 HN2         -0.1750    -1.0350     1.7490 hn         1 ATT       0.161500
     35 H41          1.6560    -1.2490    -1.7430 hc         1 ATT       0.031200
     36 H42          1.6560    -2.1340    -0.2120 hc         1 ATT       0.031200
     37 H6           3.6720    -0.1880    -2.5730 ha         1 ATT       0.103500
@<TRIPOS>BOND
     1     1     2 1   
     2     1    17 1   
     3     1    20 1   
     4     1    23 1   
     5     2    18 2   
     6     2    19 1   
     7     3    19 1   
     8     3    24 1   
     9     3    25 1   
    10     3    26 1   
    11     4     5 ar  
    12     4    22 ar  
    13     4    27 1   
    14     5     6 ar  
    15     5    28 1   
    16     6     7 ar  
    17     6    29 1   
    18     7    21 ar  
    19     7    30 1   
    20     8    11 2   
    21     8    12 1   
    22     8    14 1   
    23     9    10 2   
    24     9    12 1   
    25     9    13 1   
    26    10    11 1   
    27    13    31 1   
    28    14    15 1   
    29    14    32 1   
    30    15    16 2   
    31    15    17 1   
    32    17    33 1   
    33    19    34 1   
    34    20    21 1   
    35    20    35 1   
    36    20    36 1   
    37    21    22 ar  
    38    22    37 1   
@<TRIPOS>SUBSTRUCTURE
     1 ATT         1 TEMP              0 ****  ****    0 ROOT
