@<TRIPOS>MOLECULE
ATU
   33    36     1     0     0
SMALL
bcc


@<TRIPOS>ATOM
      1 N1           0.0000     0.0000     0.0000 ns         1 ATU      -0.022100
      2 C2           1.3320     0.0000     0.0000 c          1 ATU       0.604500
      3 C3           2.1270     0.0000     1.2820 c3         1 ATU       0.001800
      4 O4           1.9210    -0.0000    -1.0600 o          1 ATU      -0.666500
      5 C5          -0.6850    -0.7680     2.2220 ca         1 ATU      -0.043800
      6 C6          -0.8660     0.0090     1.0780 ca         1 ATU      -0.061400
      7 C7          -1.9900     0.8340     0.9950 ca         1 ATU      -0.128000
      8 C8          -2.9260     0.8540     2.0070 ca         1 ATU      -0.069000
      9 C9          -2.7620     0.0540     3.1250 ca         1 ATU      -0.106000
     10 C10         -1.6470    -0.7470     3.2380 ca         1 ATU      -0.083000
     11 N11          0.5570    -2.8240     3.0670 na         1 ATU       0.385600
     12 C12          1.7740    -1.2570     2.0380 cc         1 ATU      -0.113400
     13 C13          0.5220    -1.5990     2.4290 cd         1 ATU      -0.191300
     14 C14          2.6630    -2.3110     2.4740 ca         1 ATU      -0.123800
     15 C15          1.8440    -3.2770     3.1160 ca         1 ATU      -0.187200
     16 C16          2.4030    -4.4350     3.6530 ca         1 ATU      -0.119000
     17 C17          3.7740    -4.5850     3.5290 ca         1 ATU      -0.013000
     18 C18          4.5680    -3.6400     2.9010 ca         1 ATU      -0.481200
     19 C19          4.0470    -2.4870     2.3660 ca         1 ATU       0.073000
     20 N20          6.0260    -3.8760     2.8110 no         1 ATU       1.050200
     21 O21          6.7430    -3.0600     2.2590 o          1 ATU      -0.456000
     22 O22          6.5100    -4.8900     3.2830 o          1 ATU      -0.456000
     23 HN1         -0.4330    -0.0080    -0.9020 hn         1 ATU       0.174500
     24 HC31         1.8680     0.8690     1.8740 hc         1 ATU       0.044700
     25 HC32         3.1870     0.0060     1.0550 hc         1 ATU       0.044700
     26 HC7         -2.1290     1.4640     0.1240 ha         1 ATU       0.116000
     27 HC8         -3.8020     1.4840     1.9180 ha         1 ATU       0.108000
     28 HC9         -3.5000     0.0730     3.9180 ha         1 ATU       0.110000
     29 H10         -1.5200    -1.3720     4.1140 ha         1 ATU       0.102000
     30 H11         -0.2400    -3.3050     3.4350 hn         1 ATU       0.122700
     31 H16          1.7930    -5.1820     4.1460 ha         1 ATU       0.117000
     32 H17          4.2400    -5.4760     3.9320 ha         1 ATU       0.130000
     33 H19          4.6760    -1.7540     1.8770 ha         1 ATU       0.139000
@<TRIPOS>BOND
     1     1     2 1   
     2     1     6 1   
     3     1    23 1   
     4     2     3 1   
     5     2     4 2   
     6     3    12 1   
     7     3    24 1   
     8     3    25 1   
     9     5     6 ar  
    10     5    10 ar  
    11     5    13 1   
    12     6     7 ar  
    13     7     8 ar  
    14     7    26 1   
    15     8     9 ar  
    16     8    27 1   
    17     9    10 ar  
    18     9    28 1   
    19    10    29 1   
    20    11    13 1   
    21    11    15 1   
    22    11    30 1   
    23    12    13 2   
    24    12    14 1   
    25    14    15 ar  
    26    14    19 ar  
    27    15    16 ar  
    28    16    17 ar  
    29    16    31 1   
    30    17    18 ar  
    31    17    32 1   
    32    18    19 ar  
    33    18    20 1   
    34    19    33 1   
    35    20    21 1   
    36    20    22 1   
@<TRIPOS>SUBSTRUCTURE
     1 ATU         1 TEMP              0 ****  ****    0 ROOT
