@<TRIPOS>MOLECULE
molecule
   30    33     1     0     0
SMALL
bcc


@<TRIPOS>ATOM
      1 OAA          0.0000     0.0000     0.0000 o          1 ATV      -0.606000
      2 OAB          0.8740     0.0050    -4.3490 o          1 ATV      -0.606000
      3 CAC          4.0830     0.0000     1.0080 ca         1 ATV      -0.151000
      4 CAD          5.0300    -0.0000    -3.6990 ca         1 ATV      -0.151000
      5 CAE          5.0040     0.0000     0.0000 ca         1 ATV      -0.072000
      6 CAF          5.4890    -0.0000    -2.4130 ca         1 ATV      -0.072000
      7 CAG          2.7170     0.0010     0.7470 ca         1 ATV      -0.027500
      8 CAH          3.6700     0.0020    -3.9860 ca         1 ATV      -0.027500
      9 CAI         -3.0170     1.6630    -2.7490 cx         1 ATV       0.042400
     10 CAJ         -1.0130     0.0000    -2.4660 c3         1 ATV       0.112000
     11 OAK         -2.0810     1.8650    -3.8090 op         1 ATV      -0.373600
     12 CAL          0.8250     0.0010    -0.8930 c          1 ATV       0.720600
     13 CAM          1.2910     0.0040    -3.2060 c          1 ATV       0.720600
     14 CAN          4.5800     0.0010    -1.3410 ca         1 ATV      -0.062000
     15 CAO          2.2590     0.0010    -0.5630 ca         1 ATV      -0.165600
     16 CAP          2.7400     0.0020    -2.9560 ca         1 ATV      -0.165600
     17 CAQ          3.1970     0.0010    -1.6190 ca         1 ATV       0.013000
     18 CAR         -1.5150     1.4420    -2.5660 cx         1 ATV       0.025100
     19 NAS          0.4230     0.0000    -2.1770 n          1 ATV      -0.472400
     20 HAC          4.4240    -0.0000     2.0360 ha         1 ATV       0.140000
     21 HAD          5.7420    -0.0020    -4.5150 ha         1 ATV       0.140000
     22 HAE          6.0620    -0.0000     0.2330 ha         1 ATV       0.139000
     23 HAF          6.5550    -0.0020    -2.2190 ha         1 ATV       0.139000
     24 HAG          2.0100     0.0010     1.5670 ha         1 ATV       0.159500
     25 HAH          3.3350     0.0020    -5.0160 ha         1 ATV       0.159500
     26 HAIA        -3.6200     0.7660    -2.8180 h1         1 ATV       0.081700
     27 HAJ         -1.5420    -0.5110    -1.6710 h1         1 ATV       0.089200
     28 HAJA        -1.1920    -0.5100    -3.4050 h1         1 ATV       0.089200
     29 HAR         -1.0040     2.2190    -2.0110 h1         1 ATV       0.099700
     30 HAI         -3.4170     2.5640    -2.2980 h1         1 ATV       0.081700
@<TRIPOS>BOND
     1     1    12 2
     2     2    13 2
     3     3     5 ar
     4     3     7 ar
     5     4     6 ar
     6     4     8 ar
     7     5    14 ar
     8     6    14 ar
     9     7    15 ar
    10     8    16 ar
    11     9    11 1
    12     9    18 1
    13    10    18 1
    14    10    19 1
    15    11    18 1
    16    12    15 1
    17    12    19 1
    18    13    16 1
    19    13    19 1
    20    14    17 ar
    21    15    17 ar
    22    16    17 ar
    23     3    20 1
    24     4    21 1
    25     5    22 1
    26     6    23 1
    27     7    24 1
    28     8    25 1
    29     9    30 1
    30     9    26 1
    31    10    27 1
    32    10    28 1
    33    18    29 1
@<TRIPOS>SUBSTRUCTURE
     1 ATV         1 TEMP              0 ****  ****    0 ROOT
