@<TRIPOS>MOLECULE
molecule
   47    50     1     0     0
SMALL
bcc


@<TRIPOS>ATOM
      1 N1           0.0000     0.0000     0.0000 nb         1 ATW      -0.615000
      2 C2           1.3200     0.0000     0.0000 ca         1 ATW       0.246900
      3 C3           2.0170     0.0000     1.2040 ca         1 ATW       0.475500
      4 N4           1.3540     0.0020     2.3530 nb         1 ATW      -0.740000
      5 C5           0.0270     0.0030     2.3490 ca         1 ATW       0.474500
      6 C6          -0.6640     0.0020     1.1430 ca         1 ATW       0.245900
      7 N13          3.4130    -0.0010     1.2030 na         1 ATW       0.034100
      8 N15         -0.6750     0.0040     3.5570 na         1 ATW      -0.087900
      9 C17          4.2120     0.4720     2.2160 ca         1 ATW       0.049800
     10 C18          5.5440     0.2780     1.8050 ca         1 ATW      -0.294900
     11 C19          5.4800    -0.3410     0.4840 cc         1 ATW       0.395800
     12 N20          4.2240    -0.4900     0.1740 nd         1 ATW      -0.518100
     13 C26         -2.0320    -0.0920     3.6910 cc         1 ATW      -0.182300
     14 C27         -2.3290    -0.0560     5.0050 cd         1 ATW      -0.049300
     15 C28         -1.1140     0.0660     5.7110 cd         1 ATW      -0.172000
     16 C29         -0.1200     0.0960     4.8020 cc         1 ATW      -0.161300
     17 C35          6.5960     0.6690     2.6420 ca         1 ATW      -0.026000
     18 C36          6.3250     1.2370     3.8520 ca         1 ATW      -0.233000
     19 C37          5.0070     1.4310     4.2660 ca         1 ATW       0.236600
     20 C38          3.9530     1.0530     3.4540 ca         1 ATW      -0.222000
     21 N44          4.7490     2.0130     5.5080 nu         1 ATW      -0.817600
     22 C46          5.8610     2.4160     6.3730 c3         1 ATW       0.236500
     23 C48          6.3320     3.8180     5.9790 c3         1 ATW      -0.109600
     24 C51          5.3960     2.4260     7.8310 c3         1 ATW      -0.109600
     25 C57         -3.7070    -0.1320     5.6090 c3         1 ATW      -0.126100
     26 C59         -4.0620    -1.5730     5.8730 c          1 ATW       0.891600
     27 O61         -3.2750    -2.4480     5.5980 o          1 ATW      -0.844800
     28 O63         -5.2510    -1.8840     6.4130 o          1 ATW      -0.844800
     29 H2           1.8610    -0.0020    -0.9390 h4         1 ATW       0.043100
     30 H6          -1.7470     0.0030     1.1390 h4         1 ATW       0.048100
     31 H19          6.1950    -0.6890    -0.2520 h4         1 ATW       0.056800
     32 H26         -2.7450    -0.1810     2.8800 h4         1 ATW       0.166000
     33 H28         -1.0010     0.1210     6.7870 ha         1 ATW       0.148000
     34 H29          0.9380     0.1830     5.0210 h4         1 ATW       0.160000
     35 H35          7.6220     0.5220     2.3290 ha         1 ATW       0.125000
     36 H36          7.1410     1.5380     4.4980 ha         1 ATW       0.130000
     37 H38          2.9310     1.2060     3.7800 ha         1 ATW       0.162000
     38 HN44         3.8050     2.1110     5.8280 hn         1 ATW       0.446800
     39 H46          6.6790     1.7150     6.2600 h1         1 ATW       0.055700
     40 H48          5.5120     4.5180     6.0870 hc         1 ATW       0.041367
     41 H48A         6.6670     3.8100     4.9490 hc         1 ATW       0.041367
     42 H48B         7.1500     4.1180     6.6230 hc         1 ATW       0.041367
     43 H51          5.0440     1.4380     8.1050 hc         1 ATW       0.041367
     44 H51A         6.2230     2.7050     8.4730 hc         1 ATW       0.041367
     45 H51B         4.5910     3.1410     7.9490 hc         1 ATW       0.041367
     46 H57         -3.7230     0.4200     6.5410 hc         1 ATW       0.038700
     47 H57A        -4.4270     0.2970     4.9230 hc         1 ATW       0.038700
@<TRIPOS>BOND
     1     1     2 ar
     2     1     6 ar
     3     2     3 ar
     4     3     4 ar
     5     3     7 1
     6     4     5 ar
     7     5     6 ar
     8     5     8 1
     9     7     9 1
    10     7    12 1
    11     8    13 1
    12     8    16 1
    13     9    10 ar
    14     9    20 ar
    15    10    11 1
    16    10    17 ar
    17    11    12 2
    18    13    14 2
    19    14    15 1
    20    14    25 1
    21    15    16 2
    22    17    18 ar
    23    18    19 ar
    24    19    20 ar
    25    19    21 1
    26    21    22 1
    27    22    23 1
    28    22    24 1
    29    25    26 1
    30    26    27 1
    31    26    28 1
    32     2    29 1
    33     6    30 1
    34    11    31 1
    35    13    32 1
    36    15    33 1
    37    16    34 1
    38    17    35 1
    39    18    36 1
    40    20    37 1
    41    21    38 1
    42    22    39 1
    43    23    40 1
    44    23    41 1
    45    23    42 1
    46    24    43 1
    47    24    44 1
    48    24    45 1
    49    25    46 1
    50    25    47 1
@<TRIPOS>SUBSTRUCTURE
     1 ATW         1 TEMP              0 ****  ****    0 ROOT
