@<TRIPOS>MOLECULE
ATX
   30    30     1     0     0
SMALL
bcc


@<TRIPOS>ATOM
      1 N          -0.0110   -0.0610    0.0330 n4        1 ATX     -0.840600
      2 CA          1.4900    0.0620    0.0430 c3        1 ATX      0.029500
      3 C           2.0170    0.0130    1.4880 c         1 ATX      0.513600
      4 O           1.2810    0.2820    2.4370 o         1 ATX     -0.474100
      5 CB          1.9440    1.3550   -0.6210 c3        1 ATX     -0.134100
      6 C5          3.4100   -0.3670    1.5960 cc        1 ATX      0.287900
      7 N4          4.3250   -0.7710    0.6770 nd        1 ATX     -0.267000
      8 N3          5.4580   -1.0160    1.2760 nd        1 ATX     -0.345000
      9 C2          5.3200   -0.7770    2.6150 cc        1 ATX      0.554700
     10 O1          4.0160   -0.3590    2.8660 os        1 ATX     -0.318800
     11 C6          6.2900   -0.8930    3.7510 c3        1 ATX     -0.079300
     12 C7          7.4620    0.0440    3.4780 c3        1 ATX     -0.098767
     13 C8          5.6120   -0.5120    5.0600 c3        1 ATX     -0.098767
     14 C9          6.7820   -2.3350    3.8180 c3        1 ATX     -0.098767
     15 HN1        -0.3750    0.2140   -0.8840 hn        1 ATX      0.469133
     16 HN2        -0.2850   -1.0260    0.2390 hn        1 ATX      0.469133
     17 HA          1.8950   -0.8250   -0.5380 hx        1 ATX      0.147700
     18 HB1         3.0650    1.3720   -0.6340 hc        1 ATX      0.093033
     19 HB2         1.5840    2.2530   -0.0610 hc        1 ATX      0.093033
     20 HB3         1.5890    1.4110   -1.6800 hc        1 ATX      0.093033
     21 H71         8.1970   -0.0400    4.3150 hc        1 ATX      0.059589
     22 H72         7.9730   -0.2310    2.5240 hc        1 ATX      0.059589
     23 H73         7.1130    1.1020    3.4140 hc        1 ATX      0.059589
     24 H81         5.2420    0.5410    5.0180 hc        1 ATX      0.059589
     25 H82         6.3450   -0.6020    5.8970 hc        1 ATX      0.059589
     26 H83         4.7470   -1.1880    5.2650 hc        1 ATX      0.059589
     27 H91         7.2900   -2.6230    2.8660 hc        1 ATX      0.059589
     28 H92         5.9310   -3.0330    4.0040 hc        1 ATX      0.059589
     29 H93         7.5120   -2.4310    4.6570 hc        1 ATX      0.059589
     30 HN3        -0.4080    0.5540    0.7580 hn        1 ATX      0.469133
@<TRIPOS>BOND
     1    1    2 1   
     2    1   15 1   
     3    1   16 1   
     4    1   30 1   
     5    2    3 1   
     6    2    5 1   
     7    2   17 1   
     8    3    4 2   
     9    3    6 1   
    10    5   18 1   
    11    5   19 1   
    12    5   20 1   
    13    6    7 2   
    14    6   10 1   
    15    7    8 1   
    16    8    9 2   
    17    9   10 1   
    18    9   11 1   
    19   11   12 1   
    20   11   13 1   
    21   11   14 1   
    22   12   21 1   
    23   12   22 1   
    24   12   23 1   
    25   13   24 1   
    26   13   25 1   
    27   13   26 1   
    28   14   27 1   
    29   14   28 1   
    30   14   29 1   
@<TRIPOS>SUBSTRUCTURE
     1 ATX         1 TEMP              0 ****  ****    0 ROOT
