@<TRIPOS>MOLECULE
molecule
   43    44     1     0     0
SMALL
bcc


@<TRIPOS>ATOM
      1 PA           0.0000     0.0000     0.0000 p5         1 ATY       1.247800
      2 O1A          1.4790     0.0000     0.0000 o          1 ATY      -0.798500
      3 O2A         -0.5370     0.0000     1.5170 o          1 ATY      -0.798500
      4 O3A         -0.5370    -1.3150    -0.7590 os         1 ATY      -0.646800
      5 PB           0.0350    -2.5850     0.0490 p5         1 ATY       1.190900
      6 O1B         -0.4590    -2.5450     1.4420 o          1 ATY      -0.827833
      7 O2B         -0.4660    -3.9400    -0.6600 o          1 ATY      -0.827833
      8 O3B          1.6430    -2.5410     0.0480 o          1 ATY      -0.827833
      9 O5'         -0.5380     1.3140    -0.7580 os         1 ATY      -0.538200
     10 C5'         -0.0310     2.4410    -0.0410 c3         1 ATY       0.171400
     11 C4'         -0.5070     3.7300    -0.7130 c3         1 ATY       0.140100
     12 O4'         -1.9490     3.8050    -0.6930 os         1 ATY      -0.346600
     13 C3'         -0.0380     4.9660     0.0850 c3         1 ATY       0.122100
     14 O3'          1.1570     5.5350    -0.5100 os         1 ATY      -0.431900
     15 CR           2.0360     6.2010     0.2530 c          1 ATY       0.638100
     16 OR           1.8320     6.3290     1.4370 o          1 ATY      -0.559000
     17 CHR          3.2770     6.7910    -0.3650 c3         1 ATY      -0.141100
     18 C2'         -1.2200     5.9560    -0.0230 c3         1 ATY      -0.147400
     19 C1'         -2.2640     5.2030    -0.8760 c3         1 ATY       0.308500
     20 N1          -3.6170     5.4910    -0.3970 n          1 ATY      -0.339000
     21 C2          -3.9600     5.1740     0.8640 c          1 ATY       0.801500
     22 O2          -3.1380     4.6550     1.5960 o          1 ATY      -0.621500
     23 N3          -5.1950     5.4320     1.3320 ns         1 ATY      -0.566500
     24 C4          -6.1170     6.0060     0.5340 c          1 ATY       0.704700
     25 O4          -7.2370     6.2360     0.9540 o          1 ATY      -0.710500
     26 C5          -5.7720     6.3410    -0.7970 cc         1 ATY      -0.340400
     27 C5M         -6.7840     6.9830    -1.7100 c3         1 ATY       0.011100
     28 C6          -4.5240     6.0750    -1.2390 cd         1 ATY      -0.046400
     29 H5'2        -0.3920     2.4110     0.9800 h1         1 ATY       0.067700
     30 H5'1         1.0520     2.4120    -0.0410 h1         1 ATY       0.067700
     31 H4'         -0.1440     3.7840    -1.7330 h1         1 ATY       0.047700
     32 H3'          0.1370     4.7000     1.1200 h1         1 ATY       0.109700
     33 HHR3         4.1010     6.0970    -0.2540 hc         1 ATY       0.057367
     34 HHR2         3.1020     6.9780    -1.4170 hc         1 ATY       0.057367
     35 HHR1         3.5200     7.7230     0.1320 hc         1 ATY       0.057367
     36 H2'2        -0.9080     6.8640    -0.5230 hc         1 ATY       0.059200
     37 H2'1        -1.6210     6.1740     0.9600 hc         1 ATY       0.059200
     38 H1'         -2.1620     5.4760    -1.9190 h2         1 ATY       0.049700
     39 H3          -5.4330     5.1900     2.2730 hn         1 ATY       0.346500
     40 H5M3        -6.9620     8.0030    -1.3910 hc         1 ATY       0.020367
     41 H5M2        -7.7120     6.4250    -1.6710 hc         1 ATY       0.020367
     42 H5M1        -6.4060     6.9830    -2.7260 hc         1 ATY       0.020367
     43 H6          -4.2420     6.3240    -2.2550 h4         1 ATY       0.137000
@<TRIPOS>BOND
     1     1     2 1
     2     1     3 1
     3     1     4 1
     4     1     9 1
     5     4     5 1
     6     5     6 1
     7     5     7 1
     8     5     8 1
     9     9    10 1
    10    10    11 1
    11    10    29 1
    12    10    30 1
    13    11    12 1
    14    11    13 1
    15    11    31 1
    16    12    19 1
    17    13    14 1
    18    13    18 1
    19    13    32 1
    20    14    15 1
    21    15    16 2
    22    15    17 1
    23    17    33 1
    24    17    34 1
    25    17    35 1
    26    18    19 1
    27    18    36 1
    28    18    37 1
    29    19    20 1
    30    19    38 1
    31    20    21 1
    32    20    28 1
    33    21    22 2
    34    21    23 1
    35    23    24 1
    36    23    39 1
    37    24    25 2
    38    24    26 1
    39    26    27 1
    40    26    28 2
    41    27    40 1
    42    27    41 1
    43    27    42 1
    44    28    43 1
@<TRIPOS>SUBSTRUCTURE
     1 ATY         1 TEMP              0 ****  ****    0 ROOT
