@<TRIPOS>MOLECULE
molecule
   28    28     1     0     0
SMALL
bcc


@<TRIPOS>ATOM
      1 N1           0.0000     0.0000     0.0000 nb         1 ATZ      -0.879000
      2 C2           1.3230     0.0000     0.0000 ca         1 ATZ       0.874000
      3 Cl2          2.1900    -0.0010    -1.5040 cl         1 ATZ      -0.108000
      4 N3           1.9850     0.0000     1.1450 nb         1 ATZ      -0.881000
      5 C4           1.3250     0.0010     2.2980 ca         1 ATZ       1.010900
      6 N5          -0.0040     0.0060     2.3010 nb         1 ATZ      -0.911000
      7 C6          -0.6670     0.0000     1.1500 ca         1 ATZ       1.009900
      8 N7           2.0170     0.0020     3.4910 nu         1 ATZ      -0.882900
      9 C8           3.4820     0.0020     3.4880 c3         1 ATZ       0.239500
     10 C9           3.9950     0.7240     4.7350 c3         1 ATZ      -0.109100
     11 C10          3.9930    -1.4390     3.4870 c3         1 ATZ      -0.109100
     12 N11         -2.0470     0.0020     1.1490 nu         1 ATZ      -0.888900
     13 C12         -2.7780     0.0010    -0.1210 c3         1 ATZ       0.240800
     14 C13         -4.2830     0.0020     0.1570 c3         1 ATZ      -0.114100
     15 HN7          1.5190     0.0300     4.3590 hn         1 ATZ       0.458800
     16 H8           3.8410     0.5130     2.6020 h1         1 ATZ       0.086700
     17 H91          5.0750     0.7950     4.6930 hc         1 ATZ       0.043367
     18 H92          3.5690     1.7190     4.7770 hc         1 ATZ       0.043367
     19 H93          3.7040     0.1690     5.6190 hc         1 ATZ       0.043367
     20 H101         3.7280    -1.9160     2.5510 hc         1 ATZ       0.043367
     21 H102         5.0700    -1.4400     3.6000 hc         1 ATZ       0.043367
     22 H103         3.5430    -1.9820     4.3090 hc         1 ATZ       0.043367
     23 H11         -2.5480    -0.0240     2.0140 hn         1 ATZ       0.459800
     24 H121        -2.5160    -0.8830    -0.6890 h1         1 ATZ       0.055200
     25 H122        -2.5160     0.8860    -0.6900 h1         1 ATZ       0.055200
     26 H131        -4.5460    -0.8860     0.7190 hc         1 ATZ       0.044367
     27 H132        -4.5440     0.8830     0.7300 hc         1 ATZ       0.044367
     28 H133        -4.8230     0.0080    -0.7820 hc         1 ATZ       0.044367
@<TRIPOS>BOND
     1     1     2 ar
     2     1     7 ar
     3     2     3 1
     4     2     4 ar
     5     4     5 ar
     6     5     6 ar
     7     5     8 1
     8     6     7 ar
     9     7    12 1
    10     8     9 1
    11     8    15 1
    12     9    10 1
    13     9    11 1
    14     9    16 1
    15    10    17 1
    16    10    18 1
    17    10    19 1
    18    11    20 1
    19    11    21 1
    20    11    22 1
    21    12    13 1
    22    12    23 1
    23    13    14 1
    24    13    24 1
    25    13    25 1
    26    14    26 1
    27    14    27 1
    28    14    28 1
@<TRIPOS>SUBSTRUCTURE
     1 ATZ         1 TEMP              0 ****  ****    0 ROOT
