@<TRIPOS>MOLECULE
AU1
   41    42     1     0     0
SMALL
bcc


@<TRIPOS>ATOM
      1 O1A         1.0270   -0.9010    1.2790 o         1 AU1     -0.865500
      2 PA          2.0750   -0.7580    0.2410 p5        1 AU1      1.446700
      3 O2A         3.4210   -1.3970    0.4010 o         1 AU1     -0.865500
      4 N3A         2.1570    0.7050   -0.3950 n3        1 AU1     -1.118900
      5 PB          2.9290    3.2820   -0.4270 p4        1 AU1      1.499300
      6 O2B         3.6060    3.7500    0.7950 o         1 AU1     -0.814833
      7 O1B         3.7230    2.8130   -1.5820 o         1 AU1     -0.814833
      8 O3B         1.4800    3.5060   -0.6030 o         1 AU1     -0.863633
      9 O5'         1.4990   -1.7340   -1.0360 os        1 AU1     -0.572200
     10 C5'         2.3940   -2.0400   -2.0380 c3        1 AU1      0.212400
     11 C4'         3.0470   -3.4180   -1.8070 c3        1 AU1      0.064100
     12 C3'         4.4910   -3.3320   -1.2750 c3        1 AU1      0.121100
     13 O3'         4.5880   -3.9020    0.0110 oh        1 AU1     -0.654800
     14 C2'         5.3480   -4.1690   -2.2480 c3        1 AU1      0.107100
     15 O2'         5.8160   -5.3940   -1.7300 oh        1 AU1     -0.602800
     16 C1'         4.3910   -4.4750   -3.4500 c3        1 AU1      0.212800
     17 O4'         3.0630   -4.1630   -3.0450 os        1 AU1     -0.425600
     18 N9          4.7260   -3.7410   -4.6600 na        1 AU1     -0.261000
     19 C4          5.1420   -4.2930   -5.8770 ca        1 AU1      0.446800
     20 C5          5.2490   -3.1610   -6.7990 ca        1 AU1     -0.212200
     21 N7          4.8770   -1.9780   -6.1460 nc        1 AU1     -0.569100
     22 C8          4.5650   -2.3540   -4.8950 cd        1 AU1      0.446700
     23 N3          5.4210   -5.5820   -6.2440 nb        1 AU1     -0.714000
     24 C2          5.7930   -5.6910   -7.5370 ca        1 AU1      0.653900
     25 N1          5.9320   -4.7350   -8.5000 nb        1 AU1     -0.805000
     26 C6          5.6780   -3.4380   -8.1350 ca        1 AU1      0.717200
     27 N6          5.8900   -2.3920   -9.0240 nh        1 AU1     -0.939500
     28 H2          2.8130    0.9200   -1.1070 hn        1 AU1      0.431300
     29 H5          3.1940   -1.2500   -2.1120 h1        1 AU1      0.010700
     30 H6          1.8310   -2.0830   -3.0150 h1        1 AU1      0.010700
     31 H7          2.4040   -4.0230   -1.1100 h1        1 AU1      0.093700
     32 H8          4.8480   -2.2650   -1.2460 h1        1 AU1      0.107700
     33 H9          4.2730   -3.2130    0.6310 ho        1 AU1      0.494000
     34 H10         6.2680   -3.6130   -2.5680 h1        1 AU1      0.079700
     35 H11         5.2420   -5.6470   -0.9940 ho        1 AU1      0.429000
     36 H12         4.4020   -5.5770   -3.7010 h2        1 AU1      0.103700
     37 H13         4.2030   -1.6880   -4.0940 h5        1 AU1      0.105800
     38 H14         6.0200   -6.7220   -7.8790 h5        1 AU1      0.033100
     39 H15         5.9210   -2.6100   -9.9910 hn        1 AU1      0.420300
     40 H16         5.4620   -1.5290   -8.7780 hn        1 AU1      0.420300
     41 H3A2        1.3700    1.3100   -0.4050 hn        1 AU1      0.431300
@<TRIPOS>BOND
     1    1    2 1   
     2    2    3 1   
     3    2    4 1   
     4    2    9 1   
     5    4   28 1   
     6    4   41 1   
     7    5    6 1   
     8    5    7 1   
     9    5    8 2   
    10    9   10 1   
    11   10   11 1   
    12   10   29 1   
    13   10   30 1   
    14   11   12 1   
    15   11   17 1   
    16   11   31 1   
    17   12   13 1   
    18   12   14 1   
    19   12   32 1   
    20   13   33 1   
    21   14   15 1   
    22   14   16 1   
    23   14   34 1   
    24   15   35 1   
    25   16   17 1   
    26   16   18 1   
    27   16   36 1   
    28   18   19 1   
    29   18   22 1   
    30   19   20 ar  
    31   19   23 ar  
    32   20   21 1   
    33   20   26 ar  
    34   21   22 2   
    35   22   37 1   
    36   23   24 ar  
    37   24   25 ar  
    38   24   38 1   
    39   25   26 ar  
    40   26   27 1   
    41   27   39 1   
    42   27   40 1   
@<TRIPOS>SUBSTRUCTURE
     1 AU1         1 TEMP              0 ****  ****    0 ROOT
