@<TRIPOS>MOLECULE
molecule
   40    42     1     0     0
SMALL
bcc


@<TRIPOS>ATOM
      1 O1A          0.0000     0.0000     0.0000 o          1 AU1      -0.793500
      2 PA           1.6110     0.0000     0.0000 p5         1 AU1       1.228700
      3 O2A          2.1040     0.0000     1.3950 o          1 AU1      -0.793500
      4 N3A          2.1710     1.3750    -0.7930 n7         1 AU1      -0.910400
      5 PB           1.6310     2.7740    -0.0290 p5         1 AU1       1.188800
      6 O2B          0.1500     2.7960    -0.0290 o          1 AU1      -0.854833
      7 O1B          2.1680     2.7990     1.4880 o          1 AU1      -0.854833
      8 O3B          2.1870     4.0640    -0.8170 o          1 AU1      -0.854833
      9 O5'          2.1470    -1.3140    -0.7590 os         1 AU1      -0.571200
     10 C5'          3.4990    -1.7700    -0.6640 c3         1 AU1       0.221400
     11 C4'          3.6690    -3.0380    -1.5050 c3         1 AU1       0.124100
     12 C3'          5.0870    -3.6190    -1.3180 c3         1 AU1       0.087100
     13 O3'          5.0710    -4.6850    -0.3680 oh         1 AU1      -0.581800
     14 C2'          5.4620    -4.1490    -2.7200 c3         1 AU1       0.075100
     15 O2'          5.6890    -5.5590    -2.6780 oh         1 AU1      -0.574800
     16 C1'          4.2260    -3.8250    -3.5870 c3         1 AU1       0.247800
     17 O4'          3.5790    -2.7250    -2.9110 os         1 AU1      -0.375600
     18 N9           4.6390    -3.4270    -4.9360 na         1 AU1      -0.250000
     19 C4           4.9080    -4.2690    -5.9850 ca         1 AU1       0.466800
     20 C5           5.2550    -3.4420    -7.0660 ca         1 AU1      -0.215200
     21 N7           5.1820    -2.1610    -6.6290 nc         1 AU1      -0.619100
     22 C8           4.8210    -2.1500    -5.3800 cd         1 AU1       0.422700
     23 N3           4.9010    -5.5870    -6.1550 nb         1 AU1      -0.788000
     24 C2           5.2150    -6.1150    -7.3190 ca         1 AU1       0.644900
     25 N1           5.5490    -5.3790    -8.3640 nb         1 AU1      -0.842000
     26 C6           5.5840    -4.0510    -8.2890 ca         1 AU1       0.720200
     27 N6           5.9340    -3.2900    -9.3890 nv         1 AU1      -1.009500
     28 H2           2.2960     1.3640    -1.7860 hn         1 AU1       0.357800
     29 H5           3.7340    -1.9880     0.3700 h1         1 AU1       0.031200
     30 H6           4.1660    -1.0000    -1.0320 h1         1 AU1       0.031200
     31 H7           2.9230    -3.7760    -1.2370 h1         1 AU1       0.079700
     32 H8           5.7760    -2.8410    -1.0120 h1         1 AU1       0.052700
     33 H9           5.7560    -4.5520     0.2660 ho         1 AU1       0.388000
     34 H10          6.3350    -3.6300    -3.0980 h1         1 AU1       0.042700
     35 H11          6.6100    -5.7330    -2.7840 ho         1 AU1       0.386000
     36 H12          3.5630    -4.6800    -3.6280 h2         1 AU1       0.094700
     37 H13          4.6860    -1.2590    -4.7800 h5         1 AU1       0.104800
     38 H14          5.1990    -7.1930    -7.4240 h5         1 AU1       0.030100
     39 H15          6.0400    -3.7240   -10.2850 hn         1 AU1       0.429800
     40 H16          6.1130    -2.3110    -9.2830 hn         1 AU1       0.429800
@<TRIPOS>BOND
     1     3     2 1
     2     6     5 1
     3     7     5 1
     4     1     2 1
     5     5     4 1
     6     5     8 1
     7     2     4 1
     8     2     9 1
     9    27    26 1
    10    25    26 ar
    11    25    24 ar
    12     9    10 1
    13    10    11 1
    14    26    20 ar
    15    24    23 ar
    16    23    19 ar
    17    20    19 ar
    18    20    21 1
    19    17    11 1
    20    17    16 1
    21    19    18 1
    22    21    22 2
    23    11    12 1
    24    18    22 1
    25    18    16 1
    26    16    14 1
    27    12    14 1
    28    12    13 1
    29    14    15 1
    30     4    28 1
    31    10    29 1
    32    10    30 1
    33    11    31 1
    34    12    32 1
    35    13    33 1
    36    14    34 1
    37    15    35 1
    38    16    36 1
    39    22    37 1
    40    24    38 1
    41    27    39 1
    42    27    40 1
@<TRIPOS>SUBSTRUCTURE
     1 AU1         1 TEMP              0 ****  ****    0 ROOT
