@<TRIPOS>MOLECULE
molecule
   47    50     1     0     0
SMALL
bcc


@<TRIPOS>ATOM
      1 C1           0.0000     0.0000     0.0000 ca         1 AU2      -0.102500
      2 C2           1.3830     0.0000     0.0000 ca         1 AU2      -0.184300
      3 C3           2.1340     0.0010    -1.3070 c3         1 AU2       0.165100
      4 C4           3.1100     1.3870    -3.0050 c3         1 AU2       0.096800
      5 C5           3.3640     2.8290    -3.4460 c3         1 AU2      -0.092700
      6 C6           4.1140     2.8300    -4.7530 cc         1 AU2       0.368800
      7 C7           4.6640     3.2310    -6.8530 ca         1 AU2      -0.074200
      8 N1           3.7110     3.4700    -5.8830 na         1 AU2      -0.251300
      9 N2           5.2460     2.2230    -4.9620 nd         1 AU2      -0.589100
     10 C9           5.9080     3.1870    -8.8950 ca         1 AU2      -0.086000
     11 C8           4.8060     3.6090    -8.1810 ca         1 AU2      -0.131000
     12 Cl1          2.2750    -0.0080     3.8940 cl         1 AU2      -0.038900
     13 C14          1.3990     0.0000     2.3960 ca         1 AU2       0.041400
     14 C15          0.0040    -0.0060     2.4020 cp         1 AU2       0.040000
     15 C16         -0.7350    -0.0190     3.6890 cp         1 AU2      -0.093000
     16 C21         -1.5300     1.0690     4.0490 ca         1 AU2      -0.092500
     17 C20         -2.2160     1.0520     5.2460 ca         1 AU2      -0.123500
     18 C19         -2.1150    -0.0410     6.0890 ca         1 AU2      -0.097000
     19 C18         -1.3270    -1.1220     5.7360 ca         1 AU2      -0.123500
     20 C17         -0.6420    -1.1180     4.5390 ca         1 AU2      -0.092500
     21 C           -0.6930    -0.0010     1.1940 ca         1 AU2       0.041400
     22 Cl          -2.4290     0.0060     1.1920 cl         1 AU2      -0.038900
     23 C13          2.0800     0.0000     1.1950 ca         1 AU2      -0.102500
     24 N            2.3780     1.3860    -1.7310 ny         1 AU2      -0.737000
     25 C12          5.6430     2.4280    -6.2450 ca         1 AU2       0.083400
     26 C11          6.7530     2.0180    -6.9870 ca         1 AU2      -0.062000
     27 C10          6.8770     2.3960    -8.2930 ca         1 AU2      -0.132000
     28 H1          -0.5410     0.0050    -0.9390 ha         1 AU2       0.149500
     29 H2           3.0810    -0.5100    -1.1800 hx         1 AU2       0.112200
     30 H3           1.5470    -0.5100    -2.0610 hx         1 AU2       0.112200
     31 H4           2.5240     0.8770    -3.7590 hx         1 AU2       0.121200
     32 H5           4.0570     0.8770    -2.8770 hx         1 AU2       0.121200
     33 H6           2.4170     3.3390    -3.5730 hc         1 AU2       0.072700
     34 H7           3.9510     3.3390    -2.6920 hc         1 AU2       0.072700
     35 H8           2.9460     4.1120    -5.9540 hn         1 AU2       0.307700
     36 H10          6.0200     3.4780    -9.9330 ha         1 AU2       0.149000
     37 H11          4.0530     4.2250    -8.6560 ha         1 AU2       0.139000
     38 H12         -1.6100     1.9250     3.3900 ha         1 AU2       0.135000
     39 H13         -2.8340     1.8970     5.5270 ha         1 AU2       0.144500
     40 H14         -2.6530    -0.0500     7.0290 ha         1 AU2       0.144000
     41 H15         -1.2530    -1.9760     6.3980 ha         1 AU2       0.144500
     42 H16         -0.0250    -1.9660     4.2640 ha         1 AU2       0.135000
     43 H17          3.1640    -0.0000     1.1890 ha         1 AU2       0.149500
     44 H18          1.5030     1.8570    -1.8490 hn         1 AU2       0.449300
     45 H19          2.9200     1.8580    -1.0340 hn         1 AU2       0.449300
     46 H20          7.5150     1.4010    -6.5260 ha         1 AU2       0.150000
     47 H21          7.7370     2.0720    -8.8670 ha         1 AU2       0.149000
@<TRIPOS>BOND
     1    26    27 ar
     2    26    25 ar
     3    27    10 ar
     4     9    25 1
     5     9     6 2
     6    25     7 ar
     7    10    11 ar
     8     6     5 1
     9     6     8 1
    10     7    11 ar
    11     7     8 1
    12     5     4 1
    13     4    24 1
    14    24     3 1
    15    12    13 1
    16    23    13 ar
    17    23     2 ar
    18    20    19 ar
    19    20    15 ar
    20     3     2 1
    21    13    14 ar
    22     2     1 ar
    23    19    18 ar
    24    14    21 ar
    25    14    15 1
    26     1    21 ar
    27    21    22 1
    28    15    16 ar
    29    18    17 ar
    30    16    17 ar
    31     1    28 1
    32     3    29 1
    33     3    30 1
    34     4    31 1
    35     4    32 1
    36     5    33 1
    37     5    34 1
    38     8    35 1
    39    10    36 1
    40    11    37 1
    41    16    38 1
    42    17    39 1
    43    18    40 1
    44    19    41 1
    45    20    42 1
    46    23    43 1
    47    24    44 1
    48    24    45 1
    49    26    46 1
    50    27    47 1
@<TRIPOS>SUBSTRUCTURE
     1 AU2         1 TEMP              0 ****  ****    0 ROOT
