@<TRIPOS>MOLECULE
AU2
   47    50     1     0     0
SMALL
bcc


@<TRIPOS>ATOM
      1 C1           0.0000     0.0000     0.0000 ca         1 AU2      -0.076000
      2 C2           1.3830     0.0000     0.0000 ca         1 AU2      -0.198300
      3 C3           2.1340     0.0010    -1.3070 c3         1 AU2       0.053100
      4 C4           3.1100     1.3870    -3.0050 c3         1 AU2      -0.039200
      5 C5           3.3640     2.8290    -3.4460 c3         1 AU2       0.000300
      6 C6           4.1140     2.8300    -4.7530 cc         1 AU2       0.139800
      7 C7           4.6640     3.2310    -6.8530 ca         1 AU2      -0.260200
      8 N1           3.7110     3.4700    -5.8830 na         1 AU2       0.289700
      9 N2           5.2460     2.2230    -4.9620 nd         1 AU2      -0.499100
     10 C9           5.9080     3.1870    -8.8950 ca         1 AU2      -0.059000
     11 C8           4.8060     3.6090    -8.1810 ca         1 AU2      -0.090000
     12 Cl1          2.2750    -0.0080     3.8940 cl         1 AU2       0.055600
     13 C14          1.3990     0.0000     2.3960 ca         1 AU2      -0.035600
     14 C15          0.0040    -0.0060     2.4020 cp         1 AU2       0.050000
     15 C16         -0.7350    -0.0190     3.6890 cp         1 AU2      -0.099000
     16 C21         -1.5300     1.0690     4.0490 ca         1 AU2      -0.073000
     17 C20         -2.2160     1.0520     5.2460 ca         1 AU2      -0.091500
     18 C19         -2.1150    -0.0410     6.0890 ca         1 AU2      -0.068000
     19 C18         -1.3270    -1.1220     5.7360 ca         1 AU2      -0.091500
     20 C17         -0.6420    -1.1180     4.5390 ca         1 AU2      -0.073000
     21 C           -0.6930    -0.0010     1.1940 ca         1 AU2      -0.035600
     22 Cl          -2.4290     0.0060     1.1920 cl         1 AU2       0.055600
     23 C13          2.0800     0.0000     1.1950 ca         1 AU2      -0.076000
     24 N            2.3780     1.3860    -1.7310 ny         1 AU2       0.025000
     25 C12          5.6430     2.4280    -6.2450 ca         1 AU2       0.056400
     26 C11          6.7530     2.0180    -6.9870 ca         1 AU2      -0.033000
     27 C10          6.8770     2.3960    -8.2930 ca         1 AU2      -0.100000
     28 H1          -0.5410     0.0050    -0.9390 ha         1 AU2       0.118000
     29 H2           3.0810    -0.5100    -1.1800 hx         1 AU2       0.081200
     30 H3           1.5470    -0.5100    -2.0610 hx         1 AU2       0.081200
     31 H4           2.5240     0.8770    -3.7590 hx         1 AU2       0.092200
     32 H5           4.0570     0.8770    -2.8770 hx         1 AU2       0.092200
     33 H6           2.4170     3.3390    -3.5730 hc         1 AU2       0.030700
     34 H7           3.9510     3.3390    -2.6920 hc         1 AU2       0.030700
     35 H8           2.9460     4.1120    -5.9540 hn         1 AU2       0.129700
     36 H10          6.0200     3.4780    -9.9330 ha         1 AU2       0.115000
     37 H11          4.0530     4.2250    -8.6560 ha         1 AU2       0.110000
     38 H12         -1.6100     1.9250     3.3900 ha         1 AU2       0.107500
     39 H13         -2.8340     1.8970     5.5270 ha         1 AU2       0.114000
     40 H14         -2.6530    -0.0500     7.0290 ha         1 AU2       0.113000
     41 H15         -1.2530    -1.9760     6.3980 ha         1 AU2       0.114000
     42 H16         -0.0250    -1.9660     4.2640 ha         1 AU2       0.107500
     43 H17          3.1640    -0.0000     1.1890 ha         1 AU2       0.118000
     44 H18          1.5030     1.8570    -1.8490 hn         1 AU2       0.241800
     45 H19          2.9200     1.8580    -1.0340 hn         1 AU2       0.241800
     46 H20          7.5150     1.4010    -6.5260 ha         1 AU2       0.115000
     47 H21          7.7370     2.0720    -8.8670 ha         1 AU2       0.117000
@<TRIPOS>BOND
     1     1     2 ar  
     2     1    21 ar  
     3     1    28 1   
     4     2     3 1   
     5     2    23 ar  
     6     3    24 1   
     7     3    29 1   
     8     3    30 1   
     9     4     5 1   
    10     4    24 1   
    11     4    31 1   
    12     4    32 1   
    13     5     6 1   
    14     5    33 1   
    15     5    34 1   
    16     6     8 1   
    17     6     9 2   
    18     7     8 1   
    19     7    11 ar  
    20     7    25 ar  
    21     8    35 1   
    22     9    25 1   
    23    10    11 ar  
    24    10    27 ar  
    25    10    36 1   
    26    11    37 1   
    27    12    13 1   
    28    13    14 ar  
    29    13    23 ar  
    30    14    15 1   
    31    14    21 ar  
    32    15    16 ar  
    33    15    20 ar  
    34    16    17 ar  
    35    16    38 1   
    36    17    18 ar  
    37    17    39 1   
    38    18    19 ar  
    39    18    40 1   
    40    19    20 ar  
    41    19    41 1   
    42    20    42 1   
    43    21    22 1   
    44    23    43 1   
    45    24    44 1   
    46    24    45 1   
    47    25    26 ar  
    48    26    27 ar  
    49    26    46 1   
    50    27    47 1   
@<TRIPOS>SUBSTRUCTURE
     1 AU2         1 TEMP              0 ****  ****    0 ROOT
