@<TRIPOS>MOLECULE
AU4
   44    45     1     0     0
SMALL
bcc


@<TRIPOS>ATOM
      1 C14          0.0000     0.0000     0.0000 c3         1 AU4       0.201600
      2 N15          1.4660     0.0000     0.0000 nh         1 AU4      -0.356500
      3 C15          2.1980     0.0000     1.2690 c3         1 AU4       0.201600
      4 C12          2.1640     0.0000    -1.2090 ca         1 AU4       0.110600
      5 C7           1.4720    -0.0000    -2.4130 ca         1 AU4      -0.175000
      6 C8           2.1660    -0.0010    -3.6070 ca         1 AU4      -0.027750
      7 C11          3.5540     0.0050    -1.2110 ca         1 AU4      -0.175000
      8 C10          4.2410     0.0050    -2.4080 ca         1 AU4      -0.027750
      9 C9           3.5480    -0.0010    -3.6050 ca         1 AU4      -0.254300
     10 C13          4.3030    -0.0020    -4.9100 c3         1 AU4       0.118100
     11 N8           5.4670     0.8870    -4.8030 nz         1 AU4       0.044400
     12 C4           4.7670    -1.4010    -5.2210 ca         1 AU4      -0.254300
     13 C5           4.0610    -2.1790    -6.1200 ca         1 AU4      -0.027750
     14 C6           4.4840    -3.4610    -6.4080 ca         1 AU4      -0.175000
     15 C1           5.6190    -3.9710    -5.7920 ca         1 AU4       0.110600
     16 C2           6.3270    -3.1880    -4.8880 ca         1 AU4      -0.175000
     17 C3           5.9010    -1.9040    -4.6100 ca         1 AU4      -0.027750
     18 N16          6.0490    -5.2690    -6.0800 nh         1 AU4      -0.356500
     19 C17          7.2470    -5.8050    -5.4290 c3         1 AU4       0.201600
     20 C16          5.3020    -6.0940    -7.0320 c3         1 AU4       0.201600
     21 H141        -0.3610    -0.8810    -0.5170 h1         1 AU4       0.015283
     22 H142        -0.3610    -0.0080     1.0210 h1         1 AU4       0.015283
     23 H143        -0.3610     0.8880    -0.5040 h1         1 AU4       0.015283
     24 H151         1.4940    -0.0230     2.0920 h1         1 AU4       0.015283
     25 H152         2.8040     0.8960     1.3370 h1         1 AU4       0.015283
     26 H153         2.8380    -0.8730     1.3180 h1         1 AU4       0.015283
     27 H7           0.3900     0.0300    -2.4160 ha         1 AU4       0.131500
     28 H8           1.6270     0.0240    -4.5470 ha         1 AU4       0.094500
     29 H11          4.0960     0.0690    -0.2750 ha         1 AU4       0.131500
     30 H10          5.3240     0.0190    -2.4100 ha         1 AU4       0.094500
     31 H13          3.6530     0.3470    -5.7030 hx         1 AU4       0.076700
     32 HN81         5.1590     1.8160    -4.5940 hn         1 AU4       0.226467
     33 HN82         5.9650     0.8890    -5.6710 hn         1 AU4       0.226467
     34 H5           3.1750    -1.7810    -6.6010 ha         1 AU4       0.094500
     35 H6           3.9300    -4.0700    -7.1130 ha         1 AU4       0.131500
     36 H2           7.2140    -3.5820    -4.4080 ha         1 AU4       0.131500
     37 H3           6.4530    -1.2920    -3.9060 ha         1 AU4       0.094500
     38 H171         8.1010    -5.1850    -5.6770 h1         1 AU4       0.015283
     39 H172         7.1040    -5.8080    -4.3550 h1         1 AU4       0.015283
     40 H173         7.4230    -6.8170    -5.7730 h1         1 AU4       0.015283
     41 H161         5.2850    -5.6040    -7.9980 h1         1 AU4       0.015283
     42 H162         5.7820    -7.0600    -7.1270 h1         1 AU4       0.015283
     43 H163         4.2880    -6.2270    -6.6770 h1         1 AU4       0.015283
     44 H83          6.0670     0.5650    -4.0700 hn         1 AU4       0.226467
@<TRIPOS>BOND
     1     1     2 1   
     2     1    21 1   
     3     1    22 1   
     4     1    23 1   
     5     2     3 1   
     6     2     4 1   
     7     3    24 1   
     8     3    25 1   
     9     3    26 1   
    10     4     5 ar  
    11     4     7 ar  
    12     5     6 ar  
    13     5    27 1   
    14     6     9 ar  
    15     6    28 1   
    16     7     8 ar  
    17     7    29 1   
    18     8     9 ar  
    19     8    30 1   
    20     9    10 1   
    21    10    11 1   
    22    10    12 1   
    23    10    31 1   
    24    11    32 1   
    25    11    33 1   
    26    11    44 1   
    27    12    13 ar  
    28    12    17 ar  
    29    13    14 ar  
    30    13    34 1   
    31    14    15 ar  
    32    14    35 1   
    33    15    16 ar  
    34    15    18 1   
    35    16    17 ar  
    36    16    36 1   
    37    17    37 1   
    38    18    19 1   
    39    18    20 1   
    40    19    38 1   
    41    19    39 1   
    42    19    40 1   
    43    20    41 1   
    44    20    42 1   
    45    20    43 1   
@<TRIPOS>SUBSTRUCTURE
     1 AU4         1 TEMP              0 ****  ****    0 ROOT
