@<TRIPOS>MOLECULE
AU5
   65    69     1     0     0
SMALL
bcc


@<TRIPOS>ATOM
      1 O            0.0000     0.0000     0.0000 o          1 AU5      -0.711500
      2 C4           1.2170     0.0000     0.0000 c          1 AU5       0.584500
      3 N2           1.9930     0.0000     1.1020 n          1 AU5       0.062000
      4 C10          1.5180    -0.0010     2.4880 c3         1 AU5       0.084300
      5 C2           3.3250    -0.0010     0.6940 ca         1 AU5      -0.463000
      6 C3           4.5410    -0.0020     1.3530 ca         1 AU5       0.509200
      7 N            5.6570    -0.0040     0.6370 nb         1 AU5      -0.689000
      8 N3           1.9920    -0.0060    -1.1000 n          1 AU5      -0.014300
      9 C5           1.5120    -0.0120    -2.4840 c3         1 AU5       0.024700
     10 C9           0.6560     1.2390    -2.7500 c3         1 AU5      -0.034400
     11 C8          -0.7500     0.7370    -3.1390 c3         1 AU5      -0.037900
     12 C7          -0.8350    -0.6760    -2.5110 c3         1 AU5      -0.037900
     13 C6           0.5960    -1.2300    -2.7200 c3         1 AU5      -0.034400
     14 C1           3.3180    -0.0010    -0.7070 ca         1 AU5       0.379200
     15 N1           4.4740    -0.0030    -1.3570 nb         1 AU5      -0.677000
     16 C            5.6180    -0.0030    -0.6870 ca         1 AU5       0.704900
     17 N4           6.8100    -0.0040    -1.3950 nu         1 AU5      -0.263300
     18 C11          8.0300    -0.1380    -0.7150 ca         1 AU5      -0.078400
     19 C16          9.1810     0.4620    -1.2210 ca         1 AU5       0.162100
     20 O1           9.1240     1.1790    -2.3740 os         1 AU5      -0.314900
     21 C17         10.3430     1.7670    -2.8330 c3         1 AU5       0.247700
     22 C15         10.3830     0.3270    -0.5460 ca         1 AU5      -0.238000
     23 C14         10.4380    -0.4050     0.6310 ca         1 AU5       0.182100
     24 C13          9.2920    -1.0020     1.1330 ca         1 AU5      -0.242000
     25 C12          8.0890    -0.8650     0.4640 ca         1 AU5      -0.033000
     26 O2          11.6190    -0.5370     1.2930 os         1 AU5      -0.298900
     27 C18         11.5980    -1.2770     2.5160 c3         1 AU5       0.165100
     28 C22         12.8030    -0.8810     3.3740 c3         1 AU5      -0.047400
     29 C21         12.8080    -1.7200     4.6540 c3         1 AU5       0.161300
     30 N5          12.8790    -3.1450     4.3070 n3         1 AU5      -0.544600
     31 C23         13.0250    -3.9740     5.5110 c3         1 AU5       0.188100
     32 C20         11.7080    -3.5590     3.5220 c3         1 AU5       0.161300
     33 C19         11.6700    -2.7750     2.2080 c3         1 AU5      -0.047400
     34 H101         1.9640     0.8290     3.0230 h1         1 AU5       0.019033
     35 H102         0.4390     0.0990     2.5000 h1         1 AU5       0.019033
     36 H103         1.8000    -0.9310     2.9660 h1         1 AU5       0.019033
     37 H3           4.5810    -0.0030     2.4360 h4         1 AU5      -0.016900
     38 H5           2.3480    -0.0400    -3.1720 h1         1 AU5       0.053700
     39 H91C         0.5980     1.8450    -1.8540 hc         1 AU5       0.022450
     40 H92C         1.0820     1.8120    -3.5650 hc         1 AU5       0.022450
     41 H61C         0.8080    -2.0080    -1.9970 hc         1 AU5       0.022450
     42 H62C         0.7130    -1.6000    -3.7310 hc         1 AU5       0.022450
     43 H81C        -0.8460     0.6780    -4.2160 hc         1 AU5       0.029950
     44 H82C        -1.5120     1.3830    -2.7180 hc         1 AU5       0.029950
     45 H71C        -1.0690    -0.6120    -1.4550 hc         1 AU5       0.029950
     46 H72C        -1.5610    -1.2850    -3.0370 hc         1 AU5       0.029950
     47 H4           6.7980     0.0550    -2.3940 hn         1 AU5       0.297800
     48 H12          7.1950    -1.3320     0.8580 ha         1 AU5       0.137000
     49 H15         11.2790     0.7930    -0.9370 ha         1 AU5       0.134000
     50 H171        10.1590     2.3070    -3.7550 h1         1 AU5      -0.000300
     51 H172        10.7190     2.4520    -2.0830 h1         1 AU5      -0.000300
     52 H173        11.0750     0.9880    -3.0110 h1         1 AU5      -0.000300
     53 H13          9.3370    -1.5720     2.0530 ha         1 AU5       0.128000
     54 H18         10.6840    -1.0640     3.0580 h1         1 AU5       0.023700
     55 H221        13.7150    -1.0630     2.8200 hc         1 AU5       0.032700
     56 H222        12.7320     0.1690     3.6310 hc         1 AU5       0.032700
     57 H191        10.7960    -3.0690     1.6390 hc         1 AU5       0.032700
     58 H192        12.5660    -2.9830     1.6370 hc         1 AU5       0.032700
     59 H211        13.6690    -1.4530     5.2550 h1         1 AU5       0.008700
     60 H212        11.8990    -1.5310     5.2120 h1         1 AU5       0.008700
     61 H231        13.9150    -3.6730     6.0500 h1         1 AU5       0.000367
     62 H232        13.1110    -5.0150     5.2240 h1         1 AU5       0.000367
     63 H233        12.1570    -3.8450     6.1460 h1         1 AU5       0.000367
     64 H201        10.8070    -3.3580     4.0880 h1         1 AU5       0.008700
     65 H202        11.7770    -4.6190     3.3060 h1         1 AU5       0.008700
@<TRIPOS>BOND
     1     1     2 2   
     2     2     3 1   
     3     2     8 1   
     4     3     4 1   
     5     3     5 1   
     6     4    34 1   
     7     4    35 1   
     8     4    36 1   
     9     5     6 ar  
    10     5    14 ar  
    11     6     7 ar  
    12     6    37 1   
    13     7    16 ar  
    14     8     9 1   
    15     8    14 1   
    16     9    10 1   
    17     9    13 1   
    18     9    38 1   
    19    10    11 1   
    20    10    39 1   
    21    10    40 1   
    22    11    12 1   
    23    11    43 1   
    24    11    44 1   
    25    12    13 1   
    26    12    45 1   
    27    12    46 1   
    28    13    41 1   
    29    13    42 1   
    30    14    15 ar  
    31    15    16 ar  
    32    16    17 1   
    33    17    18 1   
    34    17    47 1   
    35    18    19 ar  
    36    18    25 ar  
    37    19    20 1   
    38    19    22 ar  
    39    20    21 1   
    40    21    50 1   
    41    21    51 1   
    42    21    52 1   
    43    22    23 ar  
    44    22    49 1   
    45    23    24 ar  
    46    23    26 1   
    47    24    25 ar  
    48    24    53 1   
    49    25    48 1   
    50    26    27 1   
    51    27    28 1   
    52    27    33 1   
    53    27    54 1   
    54    28    29 1   
    55    28    55 1   
    56    28    56 1   
    57    29    30 1   
    58    29    59 1   
    59    29    60 1   
    60    30    31 1   
    61    30    32 1   
    62    31    61 1   
    63    31    62 1   
    64    31    63 1   
    65    32    33 1   
    66    32    64 1   
    67    32    65 1   
    68    33    57 1   
    69    33    58 1   
@<TRIPOS>SUBSTRUCTURE
     1 AU5         1 TEMP              0 ****  ****    0 ROOT
