@<TRIPOS>MOLECULE
AU6
   33    34     1     0     0
SMALL
bcc


@<TRIPOS>ATOM
      1 OAB          0.0000     0.0000     0.0000 o          1 AU6      -0.882300
      2 CAO          1.3460     0.0000     0.0000 c          1 AU6       0.972200
      3 OAD          1.9530     0.0000     1.0530 o          1 AU6      -0.882300
      4 CAT          2.0860     0.0010    -1.2790 ca         1 AU6      -0.088600
      5 CAL          3.4810     0.0010    -1.2820 ca         1 AU6      -0.072000
      6 CAG          1.3900    -0.0050    -2.4900 ca         1 AU6      -0.074000
      7 CAE          2.0830    -0.0050    -3.6830 ca         1 AU6      -0.133000
      8 CAF          3.4660     0.0010    -3.6850 ca         1 AU6      -0.164000
      9 CAS          4.1670     0.0010    -2.4860 ca         1 AU6      -0.132400
     10 NAN          5.5670     0.0000    -2.4940 ns         1 AU6      -0.042100
     11 CAP          6.2470     0.6720    -1.5420 c          1 AU6       0.540100
     12 OAC          5.6460     1.2070    -0.6300 o          1 AU6      -0.647100
     13 NAM          7.5900     0.7490    -1.6030 ns         1 AU6      -0.079100
     14 CAR          8.3030     1.3620    -0.5650 ca         1 AU6      -0.041400
     15 CAJ          9.5500     0.8770    -0.1960 ca         1 AU6      -0.101500
     16 CAH         10.2510     1.4840     0.8270 ca         1 AU6      -0.104500
     17 CAQ          9.7120     2.5750     1.4840 ca         1 AU6      -0.119300
     18 CAA         10.4790     3.2350     2.6010 c3         1 AU6       0.069200
     19 CAI          8.4690     3.0610     1.1190 ca         1 AU6      -0.104500
     20 CAK          7.7660     2.4610     0.0930 ca         1 AU6      -0.101500
     21 H2           4.0260     0.0010    -0.3460 ha         1 AU6       0.164000
     22 H3           0.3070    -0.0090    -2.4920 ha         1 AU6       0.128000
     23 H4           1.5420    -0.0070    -4.6220 ha         1 AU6       0.082000
     24 H5           4.0040     0.0000    -4.6250 ha         1 AU6       0.080000
     25 H6           6.0630    -0.5090    -3.1980 hn         1 AU6       0.142500
     26 H7           8.0760     0.3980    -2.4040 hn         1 AU6       0.152500
     27 H8           9.9600     0.0040    -0.6910 ha         1 AU6       0.116000
     28 H9          11.2210     1.1000     1.1210 ha         1 AU6       0.101500
     29 H10         10.4180     2.6220     3.4920 hc         1 AU6       0.001367
     30 H11         10.0530     4.2100     2.8040 hc         1 AU6       0.001367
     31 H12         11.5160     3.3470     2.3090 hc         1 AU6       0.001367
     32 H13          8.0470     3.9120     1.6390 ha         1 AU6       0.101500
     33 H14          7.0860     3.2690    -0.1500 ha         1 AU6       0.116000
@<TRIPOS>BOND
     1     1     2 1   
     2     2     3 1   
     3     2     4 1   
     4     4     5 ar  
     5     4     6 ar  
     6     5     9 ar  
     7     5    21 1   
     8     6     7 ar  
     9     6    22 1   
    10     7     8 ar  
    11     7    23 1   
    12     8     9 ar  
    13     8    24 1   
    14     9    10 1   
    15    10    11 1   
    16    10    25 1   
    17    11    12 2   
    18    11    13 1   
    19    13    14 1   
    20    13    26 1   
    21    14    15 ar  
    22    14    20 ar  
    23    15    16 ar  
    24    15    27 1   
    25    16    17 ar  
    26    16    28 1   
    27    17    18 1   
    28    17    19 ar  
    29    18    29 1   
    30    18    30 1   
    31    18    31 1   
    32    19    20 ar  
    33    19    32 1   
    34    20    33 1   
@<TRIPOS>SUBSTRUCTURE
     1 AU6         1 TEMP              0 ****  ****    0 ROOT
