@<TRIPOS>MOLECULE
molecule
   33    34     1     0     0
SMALL
bcc


@<TRIPOS>ATOM
      1 OAB          0.0000     0.0000     0.0000 o          1 AU6      -0.834300
      2 CAO          1.3460     0.0000     0.0000 c          1 AU6       0.882200
      3 OAD          1.9530     0.0000     1.0530 o          1 AU6      -0.834300
      4 CAT          2.0860     0.0010    -1.2790 ca         1 AU6      -0.090600
      5 CAL          3.4810     0.0010    -1.2820 ca         1 AU6      -0.097000
      6 CAG          1.3900    -0.0050    -2.4900 ca         1 AU6      -0.106000
      7 CAE          2.0830    -0.0050    -3.6830 ca         1 AU6      -0.153000
      8 CAF          3.4660     0.0010    -3.6850 ca         1 AU6      -0.186000
      9 CAS          4.1670     0.0010    -2.4860 ca         1 AU6       0.020600
     10 NAN          5.5670     0.0000    -2.4940 ns         1 AU6      -0.486100
     11 CAP          6.2470     0.6720    -1.5420 c          1 AU6       0.769100
     12 OAC          5.6460     1.2070    -0.6300 o          1 AU6      -0.600100
     13 NAM          7.5900     0.7490    -1.6030 ns         1 AU6      -0.503100
     14 CAR          8.3030     1.3620    -0.5650 ca         1 AU6       0.097600
     15 CAJ          9.5500     0.8770    -0.1960 ca         1 AU6      -0.131000
     16 CAH         10.2510     1.4840     0.8270 ca         1 AU6      -0.127000
     17 CAQ          9.7120     2.5750     1.4840 ca         1 AU6      -0.113300
     18 CAA         10.4790     3.2350     2.6010 c3         1 AU6      -0.042800
     19 CAI          8.4690     3.0610     1.1190 ca         1 AU6      -0.127000
     20 CAK          7.7660     2.4610     0.0930 ca         1 AU6      -0.131000
     21 H2           4.0260     0.0010    -0.3460 ha         1 AU6       0.183000
     22 H3           0.3070    -0.0090    -2.4920 ha         1 AU6       0.154000
     23 H4           1.5420    -0.0070    -4.6220 ha         1 AU6       0.105000
     24 H5           4.0040     0.0000    -4.6250 ha         1 AU6       0.097000
     25 H6           6.0630    -0.5090    -3.1980 hn         1 AU6       0.299500
     26 H7           8.0760     0.3980    -2.4040 hn         1 AU6       0.307500
     27 H8           9.9600     0.0040    -0.6910 ha         1 AU6       0.141500
     28 H9          11.2210     1.1000     1.1210 ha         1 AU6       0.126500
     29 H10         10.4180     2.6220     3.4920 hc         1 AU6       0.036367
     30 H11         10.0530     4.2100     2.8040 hc         1 AU6       0.036367
     31 H12         11.5160     3.3470     2.3090 hc         1 AU6       0.036367
     32 H13          8.0470     3.9120     1.6390 ha         1 AU6       0.126500
     33 H14          7.0860     3.2690    -0.1500 ha         1 AU6       0.141500
@<TRIPOS>BOND
     1     3     2 1
     2     6     7 ar
     3     6     4 ar
     4     2     1 1
     5     2     4 1
     6     7     8 ar
     7     4     5 ar
     8     8     9 ar
     9     5     9 ar
    10     9    10 1
    11    10    11 1
    12    12    11 2
    13    11    13 1
    14    13    14 1
    15    20    14 ar
    16    20    19 ar
    17    14    15 ar
    18    19    17 ar
    19    15    16 ar
    20    17    16 ar
    21    17    18 1
    22     5    21 1
    23     6    22 1
    24     7    23 1
    25     8    24 1
    26    10    25 1
    27    13    26 1
    28    15    27 1
    29    16    28 1
    30    18    29 1
    31    18    30 1
    32    18    31 1
    33    19    32 1
    34    20    33 1
@<TRIPOS>SUBSTRUCTURE
     1 AU6         1 TEMP              0 ****  ****    0 ROOT
