@<TRIPOS>MOLECULE
molecule
   54    58     1     0     0
SMALL
bcc


@<TRIPOS>ATOM
      1 C4           0.0000     0.0000     0.0000 ca         1 AU7      -0.026300
      2 C14         -3.8420    -1.5900     1.8640 ca         1 AU7       0.118100
      3 C5           1.3820     0.0000     0.0000 ca         1 AU7      -0.136000
      4 C6           2.0740     0.0000     1.1970 ca         1 AU7      -0.117000
      5 C11          0.0550    -0.2030    -2.5880 cx         1 AU7      -0.133400
      6 C7           1.3840    -0.0010     2.3940 ca         1 AU7      -0.133000
      7 C8           0.0000    -0.0020     2.3950 ca         1 AU7       0.056400
      8 C10         -0.7540    -0.0000    -1.3040 cx         1 AU7      -0.094400
      9 C12         -0.5190     1.1760    -2.2560 cx         1 AU7      -0.133400
     10 C3          -0.6920    -0.0050     1.1970 ca         1 AU7      -0.070300
     11 C1          -2.7090     1.3890     1.5650 c3         1 AU7      -0.111100
     12 C15         -4.5720    -1.2140     0.7320 ca         1 AU7      -0.223000
     13 C16         -5.7420    -1.8300     0.4160 ca         1 AU7      -0.124300
     14 C17         -6.2340    -2.8620     1.2340 ca         1 AU7       0.367600
     15 C18         -5.4940    -3.2430     2.3820 ca         1 AU7      -0.099300
     16 C19         -4.2860    -2.5920     2.6790 ca         1 AU7      -0.155000
     17 C2          -2.1990    -0.0060     1.1970 c3         1 AU7       0.182400
     18 C20         -5.9850    -4.2750     3.2010 ca         1 AU7      -0.049300
     19 C21         -7.1870    -4.8790     2.8410 ca         1 AU7      -0.114100
     20 C22         -7.8620    -4.4410     1.6840 ca         1 AU7       0.423200
     21 C24         -7.7470    -5.9640     3.6610 ce         1 AU7      -0.185200
     22 C25         -8.9630    -6.4730     3.3680 cf         1 AU7      -0.130200
     23 C26         -9.5190    -7.5510     4.1830 c          1 AU7       0.863800
     24 C29         -5.2320    -4.7140     4.4310 cx         1 AU7      -0.076400
     25 C30         -4.7320    -6.1590     4.4750 cx         1 AU7      -0.136900
     26 C31         -3.7390    -5.0120     4.2770 cx         1 AU7      -0.136900
     27 N23         -7.3880    -3.4750     0.9420 nb         1 AU7      -0.692000
     28 O13         -2.6750    -0.9560     2.1530 os         1 AU7      -0.317900
     29 O27        -10.7330    -8.0600     3.8890 o          1 AU7      -0.834300
     30 O28         -8.8880    -7.9890     5.1260 o          1 AU7      -0.834300
     31 Cl9         -0.8680    -0.0090     3.8990 cl         1 AU7      -0.081400
     32 H1           1.9230     0.0010    -0.9380 ha         1 AU7       0.134000
     33 H2           3.1570     0.0000     1.1960 ha         1 AU7       0.131000
     34 H3          -0.4510    -0.7420    -3.3790 hc         1 AU7       0.076200
     35 H4           1.1250    -0.3080    -2.4540 hc         1 AU7       0.076200
     36 H5           1.9260     0.0000     3.3320 ha         1 AU7       0.141000
     37 H6          -1.7560    -0.4120    -1.3300 hc         1 AU7       0.095700
     38 H7          -1.3770     1.4790    -2.8450 hc         1 AU7       0.076200
     39 H8           0.1990     1.9130    -1.9200 hc         1 AU7       0.076200
     40 H9          -3.2720     1.3360     2.4890 hc         1 AU7       0.048033
     41 H10         -1.8670     2.0590     1.6930 hc         1 AU7       0.048033
     42 H11         -3.3480     1.7600     0.7730 hc         1 AU7       0.048033
     43 H12         -4.2010    -0.4170     0.0990 ha         1 AU7       0.123000
     44 H13         -6.2940    -1.5260    -0.4650 ha         1 AU7       0.138000
     45 H14         -3.7140    -2.8770     3.5540 ha         1 AU7       0.157000
     46 H15         -2.5600    -0.2740     0.2110 h1         1 AU7       0.062700
     47 H16         -8.7970    -4.9120     1.4060 h4         1 AU7       0.038100
     48 H17         -7.1840    -6.3540     4.5000 ha         1 AU7       0.162000
     49 H18         -9.5260    -6.0830     2.5290 ha         1 AU7       0.103000
     50 H19         -5.5160    -4.3030     5.3920 hc         1 AU7       0.090700
     51 H20         -4.9410    -6.7530     3.5930 hc         1 AU7       0.076700
     52 H21         -4.7230    -6.6210     5.4540 hc         1 AU7       0.076700
     53 H22         -3.3420    -4.9060     3.2750 hc         1 AU7       0.076700
     54 H23         -3.1240    -4.7740     5.1360 hc         1 AU7       0.076700
@<TRIPOS>BOND
     1    30    23 1
     2    23    29 1
     3    23    22 1
     4    22    21 2
     5    21    19 1
     6    20    19 ar
     7    20    27 ar
     8    19    18 ar
     9    27    14 ar
    10    18    24 1
    11    18    15 ar
    12    26    24 1
    13    26    25 1
    14    24    25 1
    15    14    15 ar
    16    14    13 ar
    17    15    16 ar
    18    13    12 ar
    19    16     2 ar
    20    12     2 ar
    21     2    28 1
    22    28    17 1
    23    31     7 1
    24    17    10 1
    25    17    11 1
    26     7    10 ar
    27     7     6 ar
    28    10     1 ar
    29     6     4 ar
    30     1     8 1
    31     1     3 ar
    32     8     9 1
    33     8     5 1
    34     4     3 ar
    35     9     5 1
    36     3    32 1
    37     4    33 1
    38     5    34 1
    39     5    35 1
    40     6    36 1
    41     8    37 1
    42     9    38 1
    43     9    39 1
    44    11    40 1
    45    11    41 1
    46    11    42 1
    47    12    43 1
    48    13    44 1
    49    16    45 1
    50    17    46 1
    51    20    47 1
    52    21    48 1
    53    22    49 1
    54    24    50 1
    55    25    51 1
    56    25    52 1
    57    26    53 1
    58    26    54 1
@<TRIPOS>SUBSTRUCTURE
     1 AU7         1 TEMP              0 ****  ****    0 ROOT
