@<TRIPOS>MOLECULE
molecule
   28    29     1     0     0
SMALL
bcc


@<TRIPOS>ATOM
      1 C1           0.0000     0.0000     0.0000 ca         1 AU8      -0.189300
      2 C3          -0.0140    -0.0090     2.3960 ca         1 AU8       0.041400
      3 C4           1.3800    -0.0090     2.4020 cp         1 AU8       0.045000
      4 C5           2.0770     0.0000     1.1950 ca         1 AU8       0.041400
      5 C6           1.3830     0.0000     0.0000 ca         1 AU8      -0.102000
      6 C8           2.0350     1.0730     4.5520 ca         1 AU8      -0.091500
      7 C9           2.7240     1.0590     5.7470 ca         1 AU8      -0.122500
      8 C10          3.5030    -0.0320     6.0870 ca         1 AU8      -0.095000
      9 C11          3.5950    -1.1160     5.2310 ca         1 AU8      -0.122500
     10 C12          2.9100    -1.1130     4.0330 ca         1 AU8      -0.091500
     11 Cl1          3.8120    -0.0000     1.1920 cl         1 AU8      -0.034900
     12 C           -0.7510    -0.0020    -1.3060 c3         1 AU8       0.163100
     13 N           -0.9950    -1.3870    -1.7290 nz         1 AU8      -0.810600
     14 Cl          -0.8910    -0.0190     3.8950 cl         1 AU8      -0.034900
     15 C2          -0.6970    -0.0050     1.1940 ca         1 AU8      -0.102000
     16 C7           2.1190    -0.0180     3.6880 cp         1 AU8      -0.096000
     17 H1           1.9240     0.0070    -0.9390 ha         1 AU8       0.150000
     18 H3           2.6570     1.9060     6.4190 ha         1 AU8       0.145500
     19 H4           4.0430    -0.0390     7.0260 ha         1 AU8       0.145000
     20 H5           4.2080    -1.9670     5.5010 ha         1 AU8       0.145500
     21 H6           2.9820    -1.9630     3.3650 ha         1 AU8       0.135000
     22 H7          -1.6970     0.5090    -1.1800 hx         1 AU8       0.114700
     23 H8          -0.1630     0.5070    -2.0610 hx         1 AU8       0.114700
     24 H9          -1.4860    -1.3880    -2.6010 hn         1 AU8       0.455800
     25 H10         -0.1210    -1.8620    -1.8380 hn         1 AU8       0.455800
     26 H11         -1.5440    -1.8550    -1.0360 hn         1 AU8       0.455800
     27 H12         -1.7800    -0.0050     1.1880 ha         1 AU8       0.150000
     28 H2           1.4250     1.9290     4.2870 ha         1 AU8       0.135000
@<TRIPOS>BOND
     1    13    12 1
     2    10     9 ar
     3    10    16 ar
     4    15     1 ar
     5    15     2 ar
     6    14     2 1
     7    12     1 1
     8     1     5 ar
     9     2     3 ar
    10     9     8 ar
    11     5     4 ar
    12     3     4 ar
    13     3    16 1
    14     4    11 1
    15    16     6 ar
    16     8     7 ar
    17     6     7 ar
    18     5    17 1
    19     6    28 1
    20     7    18 1
    21     8    19 1
    22     9    20 1
    23    10    21 1
    24    12    22 1
    25    12    23 1
    26    13    24 1
    27    13    25 1
    28    13    26 1
    29    15    27 1
@<TRIPOS>SUBSTRUCTURE
     1 AU8         1 TEMP              0 ****  ****    0 ROOT
