@<TRIPOS>MOLECULE
AUB
   61    65     1     0     0
SMALL
bcc


@<TRIPOS>ATOM
      1 C22          0.0000     0.0000     0.0000 ca         1 AUB      -0.034500
      2 C24          0.0080    -0.0070     2.4190 ca         1 AUB      -0.034500
      3 C21          1.3780     0.0000     0.0000 ca         1 AUB      -0.215500
      4 C25          1.3850    -0.0010     2.4100 ca         1 AUB      -0.215500
      5 C23         -0.6970    -0.0010     1.2120 ca         1 AUB      -0.139600
      6 C20          2.0740     0.0000     1.2030 ca         1 AUB       0.109100
      7 C28         -2.1720     0.0050     1.2160 c          1 AUB       0.979200
      8 C26          7.5930     1.4840    -3.7100 c          1 AUB       0.585100
      9 C14          6.1660    -0.8320    -1.2390 c3         1 AUB      -0.035900
     10 C12          4.8770     1.1390    -2.0770 c3         1 AUB      -0.035900
     11 C15          5.4760    -0.7050     0.1210 c3         1 AUB      -0.041900
     12 C17          4.1870     1.2650    -0.7170 c3         1 AUB      -0.041900
     13 C6           9.2780     4.4910    -7.6140 c3         1 AUB      -0.018733
     14 C9          11.3760     3.7510    -6.4800 c3         1 AUB      -0.018733
     15 C4           9.8070     5.3050    -5.3120 c3         1 AUB      -0.018733
     16 C2           9.5080     2.1290    -6.8330 c3         1 AUB      -0.044400
     17 C10          7.9390     3.6840    -5.6660 c3         1 AUB      -0.044400
     18 C8          10.0380     2.9430    -4.5300 c3         1 AUB      -0.044400
     19 C1          10.2520     3.3260    -7.4270 c3         1 AUB      -0.032367
     20 C5           8.6830     4.8810    -6.2600 c3         1 AUB      -0.032367
     21 C3          10.7810     4.1410    -5.1250 c3         1 AUB      -0.032367
     22 C13          6.2770     0.5500    -1.8850 c3         1 AUB       0.027700
     23 C16          4.0750    -0.1180    -0.0710 c3         1 AUB       0.164100
     24 C7           8.9130     2.5200    -5.4780 c3         1 AUB       0.044400
     25 N18          6.9380     0.4290    -3.1870 ns         1 AUB      -0.212900
     26 N11          8.2020     1.3730    -4.9090 ns         1 AUB      -0.218900
     27 O29         -2.7820     0.0110     0.1660 o          1 AUB      -0.888800
     28 O27          7.6360     2.5370    -3.1040 o          1 AUB      -0.709100
     29 O30         -2.8420     0.0040     2.3850 o          1 AUB      -0.888800
     30 O19          3.4310     0.0010     1.1990 os         1 AUB      -0.308900
     31 H1          -0.5420     0.0020    -0.9380 ha         1 AUB       0.123500
     32 H2          -0.5280    -0.0080     3.3600 ha         1 AUB       0.123500
     33 H3           1.9190     0.0010    -0.9390 ha         1 AUB       0.101500
     34 H4           1.9320    -0.0040     3.3450 ha         1 AUB       0.101500
     35 H5           7.1580    -1.2450    -1.1020 hc         1 AUB       0.017950
     36 H6           5.5830    -1.4830    -1.8790 hc         1 AUB       0.017950
     37 H7           4.2970     0.4850    -2.7160 hc         1 AUB       0.017950
     38 H8           4.9580     2.1180    -2.5320 hc         1 AUB       0.017950
     39 H9           5.3960    -1.6850     0.5760 hc         1 AUB       0.029700
     40 H10          6.0560    -0.0500     0.7600 hc         1 AUB       0.029700
     41 H11          3.1950     1.6790    -0.8540 hc         1 AUB       0.029700
     42 H12          4.7700     1.9160    -0.0770 hc         1 AUB       0.029700
     43 H15         12.0670     2.9270    -6.3470 hc         1 AUB       0.014200
     44 H16         11.9030     4.5990    -6.9010 hc         1 AUB       0.014200
     45 H17         10.3340     6.1530    -5.7340 hc         1 AUB       0.014200
     46 H18          9.3860     5.5820    -4.3530 hc         1 AUB       0.014200
     47 H19          8.7120     1.8300    -7.5040 hc         1 AUB       0.032700
     48 H20         10.1980     1.3050    -6.7000 hc         1 AUB       0.032700
     49 H21          7.5170     3.9600    -4.7070 hc         1 AUB       0.032700
     50 H22          7.1430     3.3840    -6.3370 hc         1 AUB       0.032700
     51 H23          9.6170     3.2190    -3.5710 hc         1 AUB       0.032700
     52 H24         10.7280     2.1190    -4.3980 hc         1 AUB       0.032700
     53 H25         10.6730     3.0500    -8.3860 hc         1 AUB       0.021367
     54 H26          7.9920     5.7050    -6.3930 hc         1 AUB       0.021367
     55 H27         11.5770     4.4410    -4.4540 hc         1 AUB       0.021367
     56 H28          6.8550     1.2020    -1.2410 h1         1 AUB       0.060700
     57 H29          3.4980    -0.7700    -0.7150 h1         1 AUB       0.028700
     58 H30          6.9170    -0.4410    -3.6800 hn         1 AUB       0.163500
     59 H31          8.1930     0.4980    -5.3950 hn         1 AUB       0.164500
     60 H13          8.4820     4.1910    -8.2860 hc         1 AUB       0.014200
     61 H14          9.8050     5.3390    -8.0350 hc         1 AUB       0.014200
@<TRIPOS>BOND
     1     1     3 ar  
     2     1     5 ar  
     3     1    31 1   
     4     2     4 ar  
     5     2     5 ar  
     6     2    32 1   
     7     3     6 ar  
     8     3    33 1   
     9     4     6 ar  
    10     4    34 1   
    11     5     7 1   
    12     6    30 1   
    13     7    27 1   
    14     7    29 1   
    15     8    25 1   
    16     8    26 1   
    17     8    28 2   
    18     9    11 1   
    19     9    22 1   
    20     9    35 1   
    21     9    36 1   
    22    10    12 1   
    23    10    22 1   
    24    10    37 1   
    25    10    38 1   
    26    11    23 1   
    27    11    39 1   
    28    11    40 1   
    29    12    23 1   
    30    12    41 1   
    31    12    42 1   
    32    13    19 1   
    33    13    20 1   
    34    13    60 1   
    35    13    61 1   
    36    14    19 1   
    37    14    21 1   
    38    14    43 1   
    39    14    44 1   
    40    15    20 1   
    41    15    21 1   
    42    15    45 1   
    43    15    46 1   
    44    16    19 1   
    45    16    24 1   
    46    16    47 1   
    47    16    48 1   
    48    17    20 1   
    49    17    24 1   
    50    17    49 1   
    51    17    50 1   
    52    18    21 1   
    53    18    24 1   
    54    18    51 1   
    55    18    52 1   
    56    19    53 1   
    57    20    54 1   
    58    21    55 1   
    59    22    25 1   
    60    22    56 1   
    61    23    30 1   
    62    23    57 1   
    63    24    26 1   
    64    25    58 1   
    65    26    59 1   
@<TRIPOS>SUBSTRUCTURE
     1 AUB         1 TEMP              0 ****  ****    0 ROOT
