@<TRIPOS>MOLECULE
molecule
   61    65     1     0     0
SMALL
bcc


@<TRIPOS>ATOM
      1 C22          0.0000     0.0000     0.0000 ca         1 AUB      -0.068000
      2 C24          0.0080    -0.0070     2.4190 ca         1 AUB      -0.068000
      3 C21          1.3780     0.0000     0.0000 ca         1 AUB      -0.220000
      4 C25          1.3850    -0.0010     2.4100 ca         1 AUB      -0.220000
      5 C23         -0.6970    -0.0010     1.2120 ca         1 AUB      -0.134600
      6 C20          2.0740     0.0000     1.2030 ca         1 AUB       0.103100
      7 C28         -2.1720     0.0050     1.2160 c          1 AUB       0.885200
      8 C26          7.5930     1.4840    -3.7100 c          1 AUB       0.784100
      9 C14          6.1660    -0.8320    -1.2390 c3         1 AUB      -0.093400
     10 C12          4.8770     1.1390    -2.0770 c3         1 AUB      -0.093400
     11 C15          5.4760    -0.7050     0.1210 c3         1 AUB      -0.090400
     12 C17          4.1870     1.2650    -0.7170 c3         1 AUB      -0.090400
     13 C6           9.2780     4.4910    -7.6140 c3         1 AUB      -0.070400
     14 C9          11.3760     3.7510    -6.4800 c3         1 AUB      -0.070400
     15 C4           9.8070     5.3050    -5.3120 c3         1 AUB      -0.070400
     16 C2           9.5080     2.1290    -6.8330 c3         1 AUB      -0.083733
     17 C10          7.9390     3.6840    -5.6660 c3         1 AUB      -0.083733
     18 C8          10.0380     2.9430    -4.5300 c3         1 AUB      -0.083733
     19 C1          10.2520     3.3260    -7.4270 c3         1 AUB      -0.061367
     20 C5           8.6830     4.8810    -6.2600 c3         1 AUB      -0.061367
     21 C3          10.7810     4.1410    -5.1250 c3         1 AUB      -0.061367
     22 C13          6.2770     0.5500    -1.8850 c3         1 AUB       0.129700
     23 C16          4.0750    -0.1180    -0.0710 c3         1 AUB       0.146100
     24 C7           8.9130     2.5200    -5.4780 c3         1 AUB       0.155400
     25 N18          6.9380     0.4290    -3.1870 ns         1 AUB      -0.599900
     26 N11          8.2020     1.3730    -4.9090 ns         1 AUB      -0.602900
     27 O29         -2.7820     0.0110     0.1660 o          1 AUB      -0.841300
     28 O27          7.6360     2.5370    -3.1040 o          1 AUB      -0.667100
     29 O30         -2.8420     0.0040     2.3850 o          1 AUB      -0.841300
     30 O19          3.4310     0.0010     1.1990 os         1 AUB      -0.339900
     31 H1          -0.5420     0.0020    -0.9380 ha         1 AUB       0.151500
     32 H2          -0.5280    -0.0080     3.3600 ha         1 AUB       0.151500
     33 H3           1.9190     0.0010    -0.9390 ha         1 AUB       0.115000
     34 H4           1.9320    -0.0040     3.3450 ha         1 AUB       0.115000
     35 H5           7.1580    -1.2450    -1.1020 hc         1 AUB       0.046450
     36 H6           5.5830    -1.4830    -1.8790 hc         1 AUB       0.046450
     37 H7           4.2970     0.4850    -2.7160 hc         1 AUB       0.046450
     38 H8           4.9580     2.1180    -2.5320 hc         1 AUB       0.046450
     39 H9           5.3960    -1.6850     0.5760 hc         1 AUB       0.058450
     40 H10          6.0560    -0.0500     0.7600 hc         1 AUB       0.058450
     41 H11          3.1950     1.6790    -0.8540 hc         1 AUB       0.058450
     42 H12          4.7700     1.9160    -0.0770 hc         1 AUB       0.058450
     43 H15         12.0670     2.9270    -6.3470 hc         1 AUB       0.040200
     44 H16         11.9030     4.5990    -6.9010 hc         1 AUB       0.040200
     45 H17         10.3340     6.1530    -5.7340 hc         1 AUB       0.040200
     46 H18          9.3860     5.5820    -4.3530 hc         1 AUB       0.040200
     47 H19          8.7120     1.8300    -7.5040 hc         1 AUB       0.056367
     48 H20         10.1980     1.3050    -6.7000 hc         1 AUB       0.056367
     49 H21          7.5170     3.9600    -4.7070 hc         1 AUB       0.056367
     50 H22          7.1430     3.3840    -6.3370 hc         1 AUB       0.056367
     51 H23          9.6170     3.2190    -3.5710 hc         1 AUB       0.056367
     52 H24         10.7280     2.1190    -4.3980 hc         1 AUB       0.056367
     53 H25         10.6730     3.0500    -8.3860 hc         1 AUB       0.047367
     54 H26          7.9920     5.7050    -6.3930 hc         1 AUB       0.047367
     55 H27         11.5770     4.4410    -4.4540 hc         1 AUB       0.047367
     56 H28          6.8550     1.2020    -1.2410 h1         1 AUB       0.081700
     57 H29          3.4980    -0.7700    -0.7150 h1         1 AUB       0.051700
     58 H30          6.9170    -0.4410    -3.6800 hn         1 AUB       0.302500
     59 H31          8.1930     0.4980    -5.3950 hn         1 AUB       0.302500
     60 H13          8.4820     4.1910    -8.2860 hc         1 AUB       0.040200
     61 H14          9.8050     5.3390    -8.0350 hc         1 AUB       0.040200
@<TRIPOS>BOND
     1    13    19 1
     2    13    20 1
     3    19    14 1
     4    19    16 1
     5    14    21 1
     6    20    15 1
     7    20    17 1
     8    15    21 1
     9    16    24 1
    10    21    18 1
    11    17    24 1
    12    24    18 1
    13    24    26 1
    14    26     8 1
    15    28     8 2
    16     8    25 1
    17    25    22 1
    18    22     9 1
    19    22    10 1
    20     9    11 1
    21    10    12 1
    22    11    23 1
    23    12    23 1
    24    23    30 1
    25    30     6 1
    26     6     3 ar
    27     6     4 ar
    28     3     1 ar
    29     4     2 ar
    30     1     5 ar
    31     2     5 ar
    32     5     7 1
    33     7    27 1
    34     7    29 1
    35     1    31 1
    36     2    32 1
    37     3    33 1
    38     4    34 1
    39     9    35 1
    40     9    36 1
    41    10    37 1
    42    10    38 1
    43    11    39 1
    44    11    40 1
    45    12    41 1
    46    12    42 1
    47    13    60 1
    48    13    61 1
    49    14    43 1
    50    14    44 1
    51    15    45 1
    52    15    46 1
    53    16    47 1
    54    16    48 1
    55    17    49 1
    56    17    50 1
    57    18    51 1
    58    18    52 1
    59    19    53 1
    60    20    54 1
    61    21    55 1
    62    22    56 1
    63    23    57 1
    64    25    58 1
    65    26    59 1
@<TRIPOS>SUBSTRUCTURE
     1 AUB         1 TEMP              0 ****  ****    0 ROOT
