@<TRIPOS>MOLECULE
AUD
   15    15     1     0     0
SMALL
bcc


@<TRIPOS>ATOM
      1 CAJ          0.0000     0.0000     0.0000 c3         1 AUD       0.049100
      2 CAC          1.5070     0.0000     0.0000 c2         1 AUD       0.211900
      3 OAB          2.1600     0.0000     1.1800 os         1 AUD      -0.343800
      4 SAA          3.5720    -0.7630     1.2030 s6         1 AUD       1.321100
      5 OAG          3.2880    -2.1510     1.1110 o          1 AUD      -0.558800
      6 OAH          4.3290    -0.1880     2.2600 o          1 AUD      -0.558800
      7 NAF          4.3300    -0.3350    -0.2130 ns         1 AUD      -0.324300
      8 CAE          3.5600    -0.0280    -1.2790 c          1 AUD       0.692700
      9 OAI          4.0840     0.2260    -2.3480 o          1 AUD      -0.630500
     10 CAD          2.1530    -0.0040    -1.1690 ce         1 AUD      -0.355200
     11 HAJ         -0.3610    -0.8960    -0.4900 hc         1 AUD       0.027033
     12 HAK         -0.3610     0.0240     1.0210 hc         1 AUD       0.027033
     13 HAL         -0.3610     0.8720    -0.5310 hc         1 AUD       0.027033
     14 HAD          1.5660     0.0120    -2.0800 ha         1 AUD       0.159000
     15 HAF          5.3290    -0.3070    -0.2740 hn         1 AUD       0.256500
@<TRIPOS>BOND
     1     1     2 1   
     2     1    11 1   
     3     1    12 1   
     4     1    13 1   
     5     2     3 1   
     6     2    10 2   
     7     3     4 1   
     8     4     5 2   
     9     4     6 2   
    10     4     7 1   
    11     7     8 1   
    12     7    15 1   
    13     8     9 2   
    14     8    10 1   
    15    10    14 1   
@<TRIPOS>SUBSTRUCTURE
     1 AUD         1 TEMP              0 ****  ****    0 ROOT
