@<TRIPOS>MOLECULE
molecule
   15    15     1     0     0
SMALL
bcc


@<TRIPOS>ATOM
      1 CAJ          0.0000     0.0000     0.0000 c3         1 AUD      -0.057900
      2 CAC          1.5070     0.0000     0.0000 c2         1 AUD       0.176900
      3 OAB          2.1600     0.0000     1.1800 os         1 AUD      -0.431800
      4 SAA          3.5720    -0.7630     1.2030 s6         1 AUD       1.613100
      5 OAG          3.2880    -2.1510     1.1110 o          1 AUD      -0.597300
      6 OAH          4.3290    -0.1880     2.2600 o          1 AUD      -0.597300
      7 NAF          4.3300    -0.3350    -0.2130 ns         1 AUD      -0.673300
      8 CAE          3.5600    -0.0280    -1.2790 c          1 AUD       0.713700
      9 OAI          4.0840     0.2260    -2.3480 o          1 AUD      -0.579500
     10 CAD          2.1530    -0.0040    -1.1690 ce         1 AUD      -0.344200
     11 HAJ         -0.3610    -0.8960    -0.4900 hc         1 AUD       0.071700
     12 HAK         -0.3610     0.0240     1.0210 hc         1 AUD       0.071700
     13 HAL         -0.3610     0.8720    -0.5310 hc         1 AUD       0.071700
     14 HAD          1.5660     0.0120    -2.0800 ha         1 AUD       0.193000
     15 HAF          5.3290    -0.3070    -0.2740 hn         1 AUD       0.369500
@<TRIPOS>BOND
     1     1     2 1
     2     2     3 1
     3     2    10 2
     4     3     4 1
     5     4     5 2
     6     4     6 2
     7     4     7 1
     8     7     8 1
     9     8     9 2
    10     8    10 1
    11     1    11 1
    12     1    12 1
    13     1    13 1
    14     7    15 1
    15    10    14 1
@<TRIPOS>SUBSTRUCTURE
     1 AUD         1 TEMP              0 ****  ****    0 ROOT
