@<TRIPOS>MOLECULE
molecule
   30    32     1     0     0
SMALL
bcc


@<TRIPOS>ATOM
      1 N01          0.0000     0.0000     0.0000 nb         1 AUE      -0.788000
      2 C02          1.3300     0.0000     0.0000 ca         1 AUE       0.973900
      3 N03          2.0430     0.0000     1.1110 nb         1 AUE      -0.742000
      4 C04          1.4410    -0.0010     2.3070 ca         1 AUE       0.651000
      5 C05          0.0240    -0.0020     2.3580 ca         1 AUE       0.052000
      6 C06         -0.6890    -0.0010     1.1310 ca         1 AUE       0.729900
      7 N07          2.1450    -0.0010     3.4440 nb         1 AUE      -0.721000
      8 C08          1.5130    -0.0040     4.6040 ca         1 AUE       0.628900
      9 C09          0.1000    -0.0040     4.6500 cp         1 AUE       0.305500
     10 N10         -0.6040    -0.0010     3.5310 nb         1 AUE      -0.574000
     11 C11         -0.5960    -0.0060     5.9580 cp         1 AUE      -0.134500
     12 C12         -0.1590     0.8320     6.9840 ca         1 AUE      -0.124000
     13 C13         -0.8110     0.8260     8.2010 ca         1 AUE      -0.124000
     14 C14         -1.8950    -0.0080     8.4050 ca         1 AUE      -0.113000
     15 C15         -2.3330    -0.8430     7.3900 ca         1 AUE       0.023400
     16 C16         -1.6930    -0.8410     6.1660 ca         1 AUE      -0.086000
     17 N17         -2.0680    -0.0020     1.1170 nv         1 AUE      -1.071500
     18 N18          1.9920     0.0010    -1.2130 nv         1 AUE      -1.059500
     19 N19          2.2390    -0.0040     5.7810 nv         1 AUE      -1.007500
     20 Cl          -3.6930    -1.8880     7.6550 cl         1 AUE      -0.102400
     21 H1           0.6900     1.4860     6.8260 ha         1 AUE       0.146000
     22 H2          -0.4720     1.4760     8.9990 ha         1 AUE       0.140000
     23 H3          -2.4010    -0.0110     9.3620 ha         1 AUE       0.146000
     24 H4          -2.0360    -1.4940     5.3730 ha         1 AUE       0.159000
     25 H5          -2.5670    -0.8680     1.0580 hn         1 AUE       0.447800
     26 H6          -2.5690     0.8640     1.1280 hn         1 AUE       0.447800
     27 H7           2.2360     0.8680    -1.6490 hn         1 AUE       0.447800
     28 H8           2.2290    -0.8660    -1.6540 hn         1 AUE       0.447800
     29 H9           1.8600    -0.4330     6.6020 hn         1 AUE       0.449800
     30 H10          3.1670     0.3700     5.7960 hn         1 AUE       0.449800
@<TRIPOS>BOND
     1    20    15 1
     2    15    14 ar
     3    15    16 ar
     4    14    13 ar
     5    16    11 ar
     6    13    12 ar
     7    11    12 ar
     8    11     9 1
     9    19     8 1
    10     9     8 ar
    11     9    10 ar
    12     8     7 ar
    13    10     5 ar
    14     7     4 ar
    15     5     4 ar
    16     5     6 ar
    17    17     6 1
    18     4     3 ar
    19     6     1 ar
    20     3     2 ar
    21     1     2 ar
    22     2    18 1
    23    12    21 1
    24    13    22 1
    25    14    23 1
    26    16    24 1
    27    17    25 1
    28    17    26 1
    29    18    27 1
    30    18    28 1
    31    19    29 1
    32    19    30 1
@<TRIPOS>SUBSTRUCTURE
     1 AUE         1 TEMP              0 ****  ****    0 ROOT
