@<TRIPOS>MOLECULE
AUE
   30    32     1     0     0
SMALL
bcc


@<TRIPOS>ATOM
      1 N01          0.0000     0.0000     0.0000 nb         1 AUE      -0.663000
      2 C02          1.3300     0.0000     0.0000 ca         1 AUE       0.744900
      3 N03          2.0430     0.0000     1.1110 nb         1 AUE      -0.617000
      4 C04          1.4410    -0.0010     2.3070 ca         1 AUE       0.561000
      5 C05          0.0240    -0.0020     2.3580 ca         1 AUE       0.018000
      6 C06         -0.6890    -0.0010     1.1310 ca         1 AUE       0.534900
      7 N07          2.1450    -0.0010     3.4440 nb         1 AUE      -0.619000
      8 C08          1.5130    -0.0040     4.6040 ca         1 AUE       0.432900
      9 C09          0.1000    -0.0040     4.6500 cp         1 AUE       0.258500
     10 N10         -0.6040    -0.0010     3.5310 nb         1 AUE      -0.452000
     11 C11         -0.5960    -0.0060     5.9580 cp         1 AUE      -0.134500
     12 C12         -0.1590     0.8320     6.9840 ca         1 AUE      -0.107000
     13 C13         -0.8110     0.8260     8.2010 ca         1 AUE      -0.090000
     14 C14         -1.8950    -0.0080     8.4050 ca         1 AUE      -0.092000
     15 C15         -2.3330    -0.8430     7.3900 ca         1 AUE      -0.036600
     16 C16         -1.6930    -0.8410     6.1660 ca         1 AUE      -0.067000
     17 N17         -2.0680    -0.0020     1.1170 nv         1 AUE      -0.642500
     18 N18          1.9920     0.0010    -1.2130 nv         1 AUE      -0.642500
     19 N19          2.2390    -0.0040     5.7810 nv         1 AUE      -0.531500
     20 Cl          -3.6930    -1.8880     7.6550 cl         1 AUE      -0.019400
     21 H1           0.6900     1.4860     6.8260 ha         1 AUE       0.116000
     22 H2          -0.4720     1.4760     8.9990 ha         1 AUE       0.108000
     23 H3          -2.4010    -0.0110     9.3620 ha         1 AUE       0.116000
     24 H4          -2.0360    -1.4940     5.3730 ha         1 AUE       0.127000
     25 H5          -2.5670    -0.8680     1.0580 hn         1 AUE       0.284300
     26 H6          -2.5690     0.8640     1.1280 hn         1 AUE       0.284300
     27 H7           2.2360     0.8680    -1.6490 hn         1 AUE       0.281800
     28 H8           2.2290    -0.8660    -1.6540 hn         1 AUE       0.281800
     29 H9           1.8600    -0.4330     6.6020 hn         1 AUE       0.283300
     30 H10          3.1670     0.3700     5.7960 hn         1 AUE       0.283300
@<TRIPOS>BOND
     1     1     2 ar  
     2     1     6 ar  
     3     2     3 ar  
     4     2    18 1   
     5     3     4 ar  
     6     4     5 ar  
     7     4     7 ar  
     8     5     6 ar  
     9     5    10 ar  
    10     6    17 1   
    11     7     8 ar  
    12     8     9 ar  
    13     8    19 1   
    14     9    10 ar  
    15     9    11 1   
    16    11    12 ar  
    17    11    16 ar  
    18    12    13 ar  
    19    12    21 1   
    20    13    14 ar  
    21    13    22 1   
    22    14    15 ar  
    23    14    23 1   
    24    15    16 ar  
    25    15    20 1   
    26    16    24 1   
    27    17    25 1   
    28    17    26 1   
    29    18    27 1   
    30    18    28 1   
    31    19    29 1   
    32    19    30 1   
@<TRIPOS>SUBSTRUCTURE
     1 AUE         1 TEMP              0 ****  ****    0 ROOT
