@<TRIPOS>MOLECULE
molecule
   30    32     1     0     0
SMALL
bcc


@<TRIPOS>ATOM
      1 N01          0.0000     0.0000     0.0000 nb         1 AUG      -0.788000
      2 C02          1.3300     0.0000     0.0000 ca         1 AUG       0.973900
      3 N03          2.0440     0.0000     1.1100 nb         1 AUG      -0.741000
      4 C04          1.4420    -0.0010     2.3070 ca         1 AUG       0.651000
      5 C05          0.0250     0.0000     2.3570 ca         1 AUG       0.052000
      6 C06         -0.6890    -0.0000     1.1320 ca         1 AUG       0.729900
      7 N07          2.1470     0.0000     3.4430 nb         1 AUG      -0.720000
      8 C08          1.5160    -0.0010     4.6030 ca         1 AUG       0.628900
      9 C09          0.1020    -0.0000     4.6500 cp         1 AUG       0.305500
     10 N10         -0.6020     0.0000     3.5320 nb         1 AUG      -0.575000
     11 C11         -0.5930    -0.0020     5.9580 cp         1 AUG      -0.142500
     12 C12         -0.1550     0.8360     6.9840 ca         1 AUG      -0.113000
     13 C13         -0.8070     0.8320     8.2010 ca         1 AUG      -0.132000
     14 C14         -1.8910    -0.0020     8.4040 ca         1 AUG      -0.095000
     15 C15         -2.3310    -0.8360     7.3900 ca         1 AUG      -0.023900
     16 C16         -1.6900    -0.8360     6.1670 ca         1 AUG      -0.067000
     17 N17         -2.0670     0.0000     1.1180 nv         1 AUG      -1.071500
     18 N18          1.9920    -0.0000    -1.2140 nv         1 AUG      -1.059500
     19 N19          2.2420    -0.0020     5.7800 nv         1 AUG      -1.007500
     20 Br          -3.8140    -1.9720     7.6790 br         1 AUG      -0.087100
     21 H1           0.6940     1.4890     6.8250 ha         1 AUG       0.146000
     22 H2          -0.4670     1.4820     8.9980 ha         1 AUG       0.140000
     23 H3          -2.3980    -0.0040     9.3620 ha         1 AUG       0.146000
     24 H4          -2.0350    -1.4880     5.3740 ha         1 AUG       0.159000
     25 H5          -2.5670     0.8670     1.1290 hn         1 AUG       0.448300
     26 H6          -2.5670    -0.8650     1.0590 hn         1 AUG       0.448300
     27 H7           2.2270    -0.8670    -1.6550 hn         1 AUG       0.447800
     28 H8           2.2370     0.8660    -1.6510 hn         1 AUG       0.447800
     29 H9           1.8630    -0.4310     6.6010 hn         1 AUG       0.449800
     30 H10          3.1710     0.3710     5.7940 hn         1 AUG       0.449800
@<TRIPOS>BOND
     1    20    15 1
     2    15    14 ar
     3    15    16 ar
     4    14    13 ar
     5    16    11 ar
     6    13    12 ar
     7    11    12 ar
     8    11     9 1
     9    19     8 1
    10     9     8 ar
    11     9    10 ar
    12     8     7 ar
    13    10     5 ar
    14     7     4 ar
    15     5     4 ar
    16     5     6 ar
    17    17     6 1
    18     4     3 ar
    19     6     1 ar
    20     3     2 ar
    21     1     2 ar
    22     2    18 1
    23    12    21 1
    24    13    22 1
    25    14    23 1
    26    16    24 1
    27    17    25 1
    28    17    26 1
    29    18    27 1
    30    18    28 1
    31    19    29 1
    32    19    30 1
@<TRIPOS>SUBSTRUCTURE
     1 AUG         1 TEMP              0 ****  ****    0 ROOT
