@<TRIPOS>MOLECULE
AUH
   56    59     1     0     0
SMALL
bcc


@<TRIPOS>ATOM
      1 C1           0.0000     0.0000     0.0000 c3         1 AUH       0.005900
      2 N1          -0.4920     2.3370   -11.7040 na         1 AUH       0.269700
      3 C2           1.5060     0.0000     0.0000 ca         1 AUH      -0.059300
      4 N2          -0.8130     0.1870   -11.5180 nc         1 AUH      -0.521100
      5 C3           2.1990     0.0000     1.1940 ca         1 AUH      -0.102000
      6 C4           3.5810     0.0000     1.1950 ca         1 AUH      -0.100000
      7 C5           4.2800     0.0010     0.0010 ca         1 AUH      -0.110000
      8 C6           3.5980     0.0010    -1.2000 ca         1 AUH      -0.088000
      9 C7           2.2050    -0.0050    -1.2070 cp         1 AUH      -0.022000
     10 C8           1.4670    -0.0060    -2.4930 cp         1 AUH      -0.066000
     11 C9           1.5660    -1.0940    -3.3560 ca         1 AUH      -0.054000
     12 C10          0.8780    -1.0900    -4.5520 ca         1 AUH      -0.140000
     13 C11          0.0890    -0.0060    -4.8990 ca         1 AUH      -0.054300
     14 C12         -0.6540    -0.0080    -6.2100 c3         1 AUH       0.202100
     15 C13         -0.4990     0.5960    -8.5490 c3         1 AUH       0.142800
     16 C14          0.4140     1.2150    -9.6090 c3         1 AUH      -0.010700
     17 C15         -0.2970     1.2300   -10.9380 cd         1 AUH       0.202800
     18 C16         -1.1820     1.9390   -12.8330 ca         1 AUH      -0.277200
     19 C17         -1.6620     2.5990   -13.9540 ca         1 AUH      -0.087000
     20 C18         -2.3310     1.8900   -14.9300 ca         1 AUH      -0.091000
     21 C19         -2.5250     0.5220   -14.7970 ca         1 AUH      -0.119000
     22 C20         -2.0590    -0.1430   -13.6990 ca         1 AUH      -0.039000
     23 C21         -1.3780     0.5550   -12.6980 ca         1 AUH       0.065400
     24 C22         -0.0160     1.0800    -4.0500 ca         1 AUH      -0.190000
     25 C23          0.6650     1.0860    -2.8430 ca         1 AUH       0.157100
     26 C24         -0.2790     3.2270    -2.4290 c3         1 AUH       0.237700
     27 O            0.5580     2.1490    -2.0050 os         1 AUH      -0.296900
     28 C           -0.5100    -1.4370    -0.1270 c3         1 AUH       0.005900
     29 N            0.1940     0.5810    -7.2540 n7         1 AUH      -0.589200
     30 H1          -0.3610     0.5870    -0.8360 hc         1 AUH       0.027700
     31 H2          -0.3610     0.4310     0.9260 hc         1 AUH       0.027700
     32 H5           1.6580    -0.0010     2.1330 ha         1 AUH       0.105000
     33 H6           4.1200     0.0010     2.1350 ha         1 AUH       0.100000
     34 H7           5.3630     0.0040     0.0080 ha         1 AUH       0.101000
     35 H8           4.1460    -0.0010    -2.1340 ha         1 AUH       0.106000
     36 H9           2.1820    -1.9440    -3.0890 ha         1 AUH       0.110000
     37 H10          0.9560    -1.9370    -5.2230 ha         1 AUH       0.107000
     38 H11         -1.5620     0.5750    -6.1110 h1         1 AUH       0.011200
     39 H12         -0.9060    -1.0260    -6.4810 h1         1 AUH       0.011200
     40 H13         -1.4060     1.1830    -8.4670 h1         1 AUH       0.019700
     41 H14         -0.7500    -0.4180    -8.8360 h1         1 AUH       0.019700
     42 H15          0.6650     2.2290    -9.3220 hc         1 AUH       0.024200
     43 H16          1.3210     0.6280    -9.6920 hc         1 AUH       0.024200
     44 H17         -1.5130     3.6670   -14.0630 ha         1 AUH       0.099000
     45 H18         -2.7060     2.4040   -15.8070 ha         1 AUH       0.103000
     46 H19         -3.0520    -0.0220   -15.5710 ha         1 AUH       0.104000
     47 H20         -2.2160    -1.2110   -13.6040 ha         1 AUH       0.109000
     48 H21         -0.6360     1.9240    -4.3250 ha         1 AUH       0.127000
     49 H22          0.1010     3.6370    -3.3570 h1         1 AUH      -0.000967
     50 H23         -1.2880     2.8630    -2.5820 h1         1 AUH      -0.000967
     51 H24         -0.2860     3.9990    -1.6690 h1         1 AUH      -0.000967
     52 H25         -1.2410    -1.4910    -0.9250 hc         1 AUH       0.003033
     53 H26         -0.9700    -1.7400     0.8060 hc         1 AUH       0.003033
     54 H27          0.3200    -2.0960    -0.3520 hc         1 AUH       0.003033
     55 H28          1.0400     0.0510    -7.3340 hn         1 AUH       0.257800
     56 H3          -0.1930     3.2680   -11.4890 hn         1 AUH       0.127700
@<TRIPOS>BOND
     1     1     3 1   
     2     1    28 1   
     3     1    30 1   
     4     1    31 1   
     5     2    17 1   
     6     2    18 1   
     7     2    56 1   
     8     3     5 ar  
     9     3     9 ar  
    10     4    17 2   
    11     4    23 1   
    12     5     6 ar  
    13     5    32 1   
    14     6     7 ar  
    15     6    33 1   
    16     7     8 ar  
    17     7    34 1   
    18     8     9 ar  
    19     8    35 1   
    20     9    10 1   
    21    10    11 ar  
    22    10    25 ar  
    23    11    12 ar  
    24    11    36 1   
    25    12    13 ar  
    26    12    37 1   
    27    13    14 1   
    28    13    24 ar  
    29    14    29 1   
    30    14    38 1   
    31    14    39 1   
    32    15    16 1   
    33    15    29 1   
    34    15    40 1   
    35    15    41 1   
    36    16    17 1   
    37    16    42 1   
    38    16    43 1   
    39    18    19 ar  
    40    18    23 ar  
    41    19    20 ar  
    42    19    44 1   
    43    20    21 ar  
    44    20    45 1   
    45    21    22 ar  
    46    21    46 1   
    47    22    23 ar  
    48    22    47 1   
    49    24    25 ar  
    50    24    48 1   
    51    25    27 1   
    52    26    27 1   
    53    26    49 1   
    54    26    50 1   
    55    26    51 1   
    56    28    52 1   
    57    28    53 1   
    58    28    54 1   
    59    29    55 1   
@<TRIPOS>SUBSTRUCTURE
     1 AUH         1 TEMP              0 ****  ****    0 ROOT
