@<TRIPOS>MOLECULE
molecule
   56    59     1     0     0
SMALL
bcc


@<TRIPOS>ATOM
      1 C1           0.0000     0.0000     0.0000 c3         1 AUH      -0.043100
      2 N1          -0.4920     2.3370   -11.7040 na         1 AUH      -0.264300
      3 C2           1.5060     0.0000     0.0000 ca         1 AUH      -0.051300
      4 N2          -0.8130     0.1870   -11.5180 nc         1 AUH      -0.606100
      5 C3           2.1990     0.0000     1.1940 ca         1 AUH      -0.129000
      6 C4           3.5810     0.0000     1.1950 ca         1 AUH      -0.125000
      7 C5           4.2800     0.0010     0.0010 ca         1 AUH      -0.137000
      8 C6           3.5980     0.0010    -1.2000 ca         1 AUH      -0.111000
      9 C7           2.2050    -0.0050    -1.2070 cp         1 AUH      -0.030000
     10 C8           1.4670    -0.0060    -2.4930 cp         1 AUH      -0.062000
     11 C9           1.5660    -1.0940    -3.3560 ca         1 AUH      -0.082000
     12 C10          0.8780    -1.0900    -4.5520 ca         1 AUH      -0.164000
     13 C11          0.0890    -0.0060    -4.8990 ca         1 AUH      -0.049300
     14 C12         -0.6540    -0.0080    -6.2100 c3         1 AUH       0.205100
     15 C13         -0.4990     0.5960    -8.5490 c3         1 AUH       0.159800
     16 C14          0.4140     1.2150    -9.6090 c3         1 AUH      -0.081700
     17 C15         -0.2970     1.2300   -10.9380 cd         1 AUH       0.420800
     18 C16         -1.1820     1.9390   -12.8330 ca         1 AUH      -0.093200
     19 C17         -1.6620     2.5990   -13.9540 ca         1 AUH      -0.128000
     20 C18         -2.3310     1.8900   -14.9300 ca         1 AUH      -0.114000
     21 C19         -2.5250     0.5220   -14.7970 ca         1 AUH      -0.146000
     22 C20         -2.0590    -0.1430   -13.6990 ca         1 AUH      -0.071000
     23 C21         -1.3780     0.5550   -12.6980 ca         1 AUH       0.093400
     24 C22         -0.0160     1.0800    -4.0500 ca         1 AUH      -0.199000
     25 C23          0.6650     1.0860    -2.8430 ca         1 AUH       0.147100
     26 C24         -0.2790     3.2270    -2.4290 c3         1 AUH       0.124700
     27 O            0.5580     2.1490    -2.0050 os         1 AUH      -0.318900
     28 C           -0.5100    -1.4370    -0.1270 c3         1 AUH      -0.088100
     29 N            0.1940     0.5810    -7.2540 n7         1 AUH      -0.821200
     30 H1          -0.3610     0.5870    -0.8360 hc         1 AUH       0.053200
     31 H2          -0.3610     0.4310     0.9260 hc         1 AUH       0.053200
     32 H5           1.6580    -0.0010     2.1330 ha         1 AUH       0.130000
     33 H6           4.1200     0.0010     2.1350 ha         1 AUH       0.126000
     34 H7           5.3630     0.0040     0.0080 ha         1 AUH       0.128000
     35 H8           4.1460    -0.0010    -2.1340 ha         1 AUH       0.132000
     36 H9           2.1820    -1.9440    -3.0890 ha         1 AUH       0.140000
     37 H10          0.9560    -1.9370    -5.2230 ha         1 AUH       0.130000
     38 H11         -1.5620     0.5750    -6.1110 h1         1 AUH       0.041200
     39 H12         -0.9060    -1.0260    -6.4810 h1         1 AUH       0.041200
     40 H13         -1.4060     1.1830    -8.4670 h1         1 AUH       0.048700
     41 H14         -0.7500    -0.4180    -8.8360 h1         1 AUH       0.048700
     42 H15          0.6650     2.2290    -9.3220 hc         1 AUH       0.064700
     43 H16          1.3210     0.6280    -9.6920 hc         1 AUH       0.064700
     44 H17         -1.5130     3.6670   -14.0630 ha         1 AUH       0.126000
     45 H18         -2.7060     2.4040   -15.8070 ha         1 AUH       0.132000
     46 H19         -3.0520    -0.0220   -15.5710 ha         1 AUH       0.133000
     47 H20         -2.2160    -1.2110   -13.6040 ha         1 AUH       0.141000
     48 H21         -0.6360     1.9240    -4.3250 ha         1 AUH       0.141000
     49 H22          0.1010     3.6370    -3.3570 h1         1 AUH       0.042033
     50 H23         -1.2880     2.8630    -2.5820 h1         1 AUH       0.042033
     51 H24         -0.2860     3.9990    -1.6690 h1         1 AUH       0.042033
     52 H25         -1.2410    -1.4910    -0.9250 hc         1 AUH       0.035033
     53 H26         -0.9700    -1.7400     0.8060 hc         1 AUH       0.035033
     54 H27          0.3200    -2.0960    -0.3520 hc         1 AUH       0.035033
     55 H28          1.0400     0.0510    -7.3340 hn         1 AUH       0.357800
     56 H3          -0.1930     3.2680   -11.4890 hn         1 AUH       0.302700
@<TRIPOS>BOND
     1    22    21 ar
     2    22    23 ar
     3    21    20 ar
     4     4    23 1
     5     4    17 2
     6    23    18 ar
     7    20    19 ar
     8    16    17 1
     9    16    15 1
    10    17     2 1
    11    18    19 ar
    12    18     2 1
    13     7     8 ar
    14     7     6 ar
    15     8     9 ar
    16    15    29 1
    17    29    14 1
    18     6     5 ar
    19     9    10 1
    20     9     3 ar
    21    14    13 1
    22    13    24 ar
    23    13    12 ar
    24    24    25 ar
    25    10    11 ar
    26    10    25 ar
    27    12    11 ar
    28    25    27 1
    29    27    26 1
    30     5     3 ar
    31     3     1 1
    32     1    28 1
    33     1    30 1
    34     1    31 1
    35     2    56 1
    36     5    32 1
    37     6    33 1
    38     7    34 1
    39     8    35 1
    40    11    36 1
    41    12    37 1
    42    14    38 1
    43    14    39 1
    44    15    40 1
    45    15    41 1
    46    16    42 1
    47    16    43 1
    48    19    44 1
    49    20    45 1
    50    21    46 1
    51    22    47 1
    52    24    48 1
    53    26    49 1
    54    26    50 1
    55    26    51 1
    56    28    52 1
    57    28    53 1
    58    28    54 1
    59    29    55 1
@<TRIPOS>SUBSTRUCTURE
     1 AUH         1 TEMP              0 ****  ****    0 ROOT
