@<TRIPOS>MOLECULE
molecule
   61    62     1     0     0
SMALL
bcc


@<TRIPOS>ATOM
      1 O13          0.0000     0.0000     0.0000 o          1 AUI      -0.583100
      2 C1           1.2200     0.0000     0.0000 c          1 AUI       0.600900
      3 C4           1.9800     0.0000     1.2620 ca         1 AUI      -0.201600
      4 C5           1.3380     0.0010     2.5000 ca         1 AUI      -0.036000
      5 C6           2.0800     0.0020     3.6480 ca         1 AUI      -0.177000
      6 C7           3.4680     0.0020     3.5910 ca         1 AUI      -0.070000
      7 C8           4.1220     0.0000     2.3780 ca         1 AUI      -0.196000
      8 C9           3.3850    -0.0000     1.1960 ca         1 AUI       0.180600
      9 N10          4.0080    -0.0010    -0.0310 na         1 AUI      -0.596400
     10 C3           3.3000    -0.0030    -1.1870 cc         1 AUI       0.168800
     11 C11          4.0480    -0.0040    -2.4950 c3         1 AUI      -0.067900
     12 C2           1.9510    -0.0070    -1.2110 cd         1 AUI      -0.246400
     13 C12          1.2220    -0.0080    -2.5300 c3         1 AUI      -0.019000
     14 C14          0.8760    -1.4240    -2.9120 c2         1 AUI      -0.524200
     15 C15         -0.3770    -1.7700    -3.0780 c2         1 AUI       0.050600
     16 C26         -1.4720    -0.7590    -2.8620 c3         1 AUI      -0.137900
     17 C16         -0.7210    -3.1800    -3.4850 c3         1 AUI      -0.074200
     18 C17         -1.0380    -4.0080    -2.2380 c3         1 AUI      -0.082200
     19 C18         -1.3830    -5.4170    -2.6460 c2         1 AUI      -0.547200
     20 C19         -0.6530    -6.4180    -2.2200 c2         1 AUI       0.043600
     21 C27          0.5530    -6.1580    -1.3580 c3         1 AUI      -0.124900
     22 C20         -1.0220    -7.8300    -2.5950 c3         1 AUI      -0.032200
     23 C21         -0.2280    -8.2540    -3.8320 c3         1 AUI       0.183300
     24 O28          1.1650    -8.2990    -3.5140 oh         1 AUI      -0.611800
     25 C22         -0.6840    -9.6190    -4.2790 c2         1 AUI      -0.228200
     26 C23         -1.1030    -9.7990    -5.5080 c2         1 AUI      -0.111400
     27 C24         -1.5650   -11.1630    -5.9530 c3         1 AUI      -0.057900
     28 C25         -1.1240    -8.6440    -6.4750 c3         1 AUI      -0.057900
     29 H1           0.2560     0.0010     2.5520 ha         1 AUI       0.157000
     30 H2           1.5820     0.0030     4.6100 ha         1 AUI       0.135000
     31 H3           4.0420     0.0020     4.5090 ha         1 AUI       0.133000
     32 H4           5.2050     0.0000     2.3440 ha         1 AUI       0.131000
     33 H5           3.7660    -0.8760    -3.0710 hc         1 AUI       0.059700
     34 H6           3.8040     0.8920    -3.0520 hc         1 AUI       0.059700
     35 H7           5.1140    -0.0290    -2.3010 hc         1 AUI       0.059700
     36 H9           0.3140     0.5750    -2.4410 hc         1 AUI       0.041200
     37 H10          1.8570     0.4270    -3.2930 hc         1 AUI       0.041200
     38 H11          0.8760    -0.5810    -3.5920 ha         1 AUI       0.331000
     39 H12         -1.5120    -0.4880    -1.8140 hc         1 AUI       0.060367
     40 H13         -1.2710     0.1240    -3.4560 hc         1 AUI       0.060367
     41 H14         -2.4220    -1.1870    -3.1600 hc         1 AUI       0.060367
     42 H15         -1.5850    -3.1660    -4.1390 hc         1 AUI       0.064700
     43 H16          0.1200    -3.6200    -4.0070 hc         1 AUI       0.064700
     44 H17         -0.1750    -4.0220    -1.5850 hc         1 AUI       0.070700
     45 H18         -1.8790    -3.5670    -1.7170 hc         1 AUI       0.070700
     46 H19         -0.5980    -4.8330    -3.1120 ha         1 AUI       0.353000
     47 H20          0.2580    -5.5870    -0.4860 hc         1 AUI       0.054033
     48 H21          1.2880    -5.5980    -1.9240 hc         1 AUI       0.054033
     49 H22          0.9830    -7.1020    -1.0430 hc         1 AUI       0.054033
     50 H23         -0.7900    -8.4950    -1.7720 hc         1 AUI       0.070700
     51 H24         -2.0820    -7.8810    -2.8120 hc         1 AUI       0.070700
     52 H25         -0.3930    -7.5390    -4.6300 h1         1 AUI       0.047700
     53 H26          1.6520    -8.5810    -4.2700 ho         1 AUI       0.403000
     54 H27         -0.6690   -10.4500    -3.5840 ha         1 AUI       0.135000
     55 H28         -0.8690   -11.9130    -5.5990 hc         1 AUI       0.044200
     56 H29         -1.6100   -11.1930    -7.0350 hc         1 AUI       0.044200
     57 H30         -2.5490   -11.3620    -5.5450 hc         1 AUI       0.044200
     58 H31         -1.4790    -8.9860    -7.4390 hc         1 AUI       0.044200
     59 H32         -0.1230    -8.2430    -6.5810 hc         1 AUI       0.044200
     60 H33         -1.7850    -7.8710    -6.1010 hc         1 AUI       0.044200
     61 H34          5.0080    -0.0020    -0.0720 hn         1 AUI       0.449800
@<TRIPOS>BOND
     1    13    14 1
     2    13    12 1
     3    14    15 2
     4    11    10 1
     5    27    26 1
     6    21    20 1
     7    25    23 1
     8    25    26 2
     9    18    17 1
    10    18    19 1
    11    17    15 1
    12    12    10 2
    13    12     2 1
    14    23    22 1
    15    23    24 1
    16    26    28 1
    17    15    16 1
    18    20    19 2
    19    20    22 1
    20    10     9 1
    21     1     2 2
    22     2     3 1
    23     9     8 1
    24     3     8 ar
    25     3     4 ar
    26     8     7 ar
    27     4     5 ar
    28     7     6 ar
    29     5     6 ar
    30     4    29 1
    31     5    30 1
    32     6    31 1
    33     7    32 1
    34    11    33 1
    35    11    34 1
    36    11    35 1
    37    13    36 1
    38    13    37 1
    39    14    38 1
    40    16    39 1
    41    16    40 1
    42    16    41 1
    43    17    42 1
    44    17    43 1
    45    18    44 1
    46    18    45 1
    47    19    46 1
    48    21    47 1
    49    21    48 1
    50    21    49 1
    51    22    50 1
    52    22    51 1
    53    23    52 1
    54    24    53 1
    55    25    54 1
    56    27    55 1
    57    27    56 1
    58    27    57 1
    59    28    58 1
    60    28    59 1
    61    28    60 1
    62     9    61 1
@<TRIPOS>SUBSTRUCTURE
     1 AUI         1 TEMP              0 ****  ****    0 ROOT
