@<TRIPOS>MOLECULE
AUI
   61    63     1     0     0
SMALL
bcc


@<TRIPOS>ATOM
      1 O13          0.0000     0.0000     0.0000 o          1 AUI      -0.372000
      2 C1           1.2200     0.0000     0.0000 c2         1 AUI       0.371000
      3 C4           1.9800     0.0000     1.2620 ca         1 AUI      -0.183000
      4 C5           1.3380     0.0010     2.5000 ca         1 AUI       0.000000
      5 C6           2.0800     0.0020     3.6480 ca         1 AUI      -0.153000
      6 C7           3.4680     0.0020     3.5910 ca         1 AUI      -0.038000
      7 C8           4.1220     0.0000     2.3780 ca         1 AUI      -0.172000
      8 C9           3.3850    -0.0000     1.1960 ca         1 AUI      -0.073000
      9 N10          4.0080    -0.0010    -0.0310 na         1 AUI       0.284000
     10 C3           3.3000    -0.0030    -1.1870 c2         1 AUI      -0.107000
     11 C11          4.0480    -0.0040    -2.4950 c3         1 AUI      -0.072000
     12 C2           1.9510    -0.0070    -1.2110 c2         1 AUI      -0.265000
     13 C12          1.2220    -0.0080    -2.5300 c3         1 AUI      -0.004000
     14 C14          0.8760    -1.4240    -2.9120 c2         1 AUI      -0.172000
     15 C15         -0.3770    -1.7700    -3.0780 c2         1 AUI      -0.117000
     16 C26         -1.4720    -0.7590    -2.8620 c3         1 AUI      -0.084000
     17 C16         -0.7210    -3.1800    -3.4850 c3         1 AUI      -0.049000
     18 C17         -1.0380    -4.0080    -2.2380 c3         1 AUI      -0.077000
     19 C18         -1.3830    -5.4170    -2.6460 c2         1 AUI      -0.170000
     20 C19         -0.6530    -6.4180    -2.2200 c2         1 AUI      -0.138000
     21 C27          0.5530    -6.1580    -1.3580 c3         1 AUI      -0.068000
     22 C20         -1.0220    -7.8300    -2.5950 c3         1 AUI      -0.027000
     23 C21         -0.2280    -8.2540    -3.8320 DU         1 AUI       0.045000
     24 O28          1.1650    -8.2990    -3.5140 oh         1 AUI      -0.297000
     25 C22         -0.6840    -9.6190    -4.2790 c2         1 AUI      -0.520000
     26 C23         -1.1030    -9.7990    -5.5080 c2         1 AUI       0.056000
     27 C24         -1.5650   -11.1630    -5.9530 c3         1 AUI      -0.114000
     28 C25         -1.1240    -8.6440    -6.4750 c3         1 AUI      -0.114000
     29 H1           0.2560     0.0010     2.5520 ha         1 AUI       0.124000
     30 H2           1.5820     0.0030     4.6100 ha         1 AUI       0.108000
     31 H3           4.0420     0.0020     4.5090 ha         1 AUI       0.100000
     32 H4           5.2050     0.0000     2.3440 ha         1 AUI       0.108000
     33 H5           5.1140     0.0220    -2.3010 hc         1 AUI       0.058667
     34 H6           3.7660     0.8670    -3.0730 hc         1 AUI       0.058667
     35 H7           3.8040    -0.9020    -3.0500 hc         1 AUI       0.058667
     36 H9           0.3140     0.5750    -2.4410 hc         1 AUI       0.070500
     37 H10          1.8570     0.4270    -3.2930 hc         1 AUI       0.070500
     38 H11          1.6640    -2.1510    -3.0670 ha         1 AUI       0.099000
     39 H12         -1.5510    -0.5320    -1.8060 hc         1 AUI       0.057000
     40 H13         -2.4130    -1.1650    -3.2150 hc         1 AUI       0.057000
     41 H14         -1.2410     0.1470    -3.4090 hc         1 AUI       0.057000
     42 H15         -1.5850    -3.1660    -4.1390 hc         1 AUI       0.051500
     43 H16          0.1200    -3.6200    -4.0070 hc         1 AUI       0.051500
     44 H17         -0.1750    -4.0220    -1.5850 hc         1 AUI       0.069000
     45 H18         -1.8790    -3.5670    -1.7160 hc         1 AUI       0.069000
     46 H19         -2.2510    -5.6040    -3.2660 ha         1 AUI       0.103000
     47 H20          0.9830    -7.1020    -1.0430 hc         1 AUI       0.050667
     48 H21          1.2880    -5.5980    -1.9240 hc         1 AUI       0.050667
     49 H22          0.2580    -5.5880    -0.4850 hc         1 AUI       0.050667
     50 H23         -2.0820    -7.8810    -2.8120 hc         1 AUI       0.076000
     51 H24         -0.7900    -8.4950    -1.7720 hc         1 AUI       0.076000
     52 H25         -0.3930    -7.5390    -4.6300 ha         1 AUI       0.031000
     53 H26          1.6660    -7.9880    -4.2490 ho         1 AUI       0.184000
     54 H27          0.2840    -9.1920    -4.5130 DU         1 AUI       0.313000
     55 H28         -2.5960   -11.1050    -6.2830 hc         1 AUI       0.059167
     56 H29         -1.4890   -11.8580    -5.1260 hc         1 AUI       0.059167
     57 H30         -0.9430   -11.5050    -6.7710 hc         1 AUI       0.059167
     58 H31         -1.7810    -7.8690    -6.0980 hc         1 AUI       0.059167
     59 H32         -0.1220    -8.2460    -6.5840 hc         1 AUI       0.059167
     60 H33         -1.4830    -8.9850    -7.4380 hc         1 AUI       0.059167
     61 H34          5.0080    -0.0000    -0.0720 hn         1 AUI       0.070000
@<TRIPOS>BOND
     1     1     2 1   
     2     2     3 1   
     3     2    12 1   
     4     3     4 1   
     5     3     8 1   
     6     4     5 1   
     7     4    29 1   
     8     5     6 1   
     9     5    30 1   
    10     6     7 1   
    11     6    31 1   
    12     7     8 1   
    13     7    32 1   
    14     8     9 1   
    15     9    10 1   
    16     9    61 1   
    17    10    11 1   
    18    10    12 1   
    19    11    33 1   
    20    11    34 1   
    21    11    35 1   
    22    12    13 1   
    23    13    14 1   
    24    13    36 1   
    25    13    37 1   
    26    14    15 1   
    27    14    38 1   
    28    15    16 1   
    29    15    17 1   
    30    16    39 1   
    31    16    40 1   
    32    16    41 1   
    33    17    18 1   
    34    17    42 1   
    35    17    43 1   
    36    18    19 1   
    37    18    44 1   
    38    18    45 1   
    39    19    20 1   
    40    19    46 1   
    41    20    21 1   
    42    20    22 1   
    43    21    47 1   
    44    21    48 1   
    45    21    49 1   
    46    22    23 1   
    47    22    50 1   
    48    22    51 1   
    49    23    24 1   
    50    23    25 1   
    51    23    52 1   
    52    23    54 1   
    53    24    53 1   
    54    25    26 1   
    55    25    54 1   
    56    26    27 1   
    57    26    28 1   
    58    27    55 1   
    59    27    56 1   
    60    27    57 1   
    61    28    58 1   
    62    28    59 1   
    63    28    60 1   
@<TRIPOS>SUBSTRUCTURE
     1 AUI         1 TEMP              0 ****  ****    0 ROOT
