@<TRIPOS>MOLECULE
AUK
   61    62     1     0     0
SMALL
bcc


@<TRIPOS>ATOM
      1 O27          0.0000     0.0000     0.0000 o          1 AUK      -0.606100
      2 C7           1.2200     0.0000     0.0000 c          1 AUK       0.646900
      3 C8           1.9500     0.0000     1.2120 cc         1 AUK      -0.283400
      4 C9           3.2990    -0.0000     1.1880 cd         1 AUK      -0.022200
      5 C28          4.0470    -0.0000     2.4970 c3         1 AUK       0.039100
      6 N10          4.0080    -0.0020     0.0340 na         1 AUK       0.157700
      7 O26          5.4220    -0.0030     0.0920 oh         1 AUK      -0.421300
      8 C3           3.3860    -0.0020    -1.1950 ca         1 AUK       0.004600
      9 C4           4.1240    -0.0040    -2.3750 ca         1 AUK      -0.161000
     10 C5           3.4710    -0.0050    -3.5890 ca         1 AUK      -0.042000
     11 C6           2.0840    -0.0040    -3.6470 ca         1 AUK      -0.148000
     12 C1           1.3410    -0.0020    -2.4990 ca         1 AUK      -0.003000
     13 C2           1.9810    -0.0070    -1.2610 ca         1 AUK      -0.199600
     14 C11          1.2210     0.0010     2.5300 c3         1 AUK       0.083000
     15 C12          0.8700     1.4170     2.9090 c2         1 AUK      -0.176200
     16 C13         -0.3800     1.7470     3.1240 c2         1 AUK      -0.125400
     17 C23         -1.4790     0.7520     2.8570 c3         1 AUK       0.037100
     18 C14         -0.7170     3.1240     3.6370 c3         1 AUK       0.031800
     19 C15         -1.0590     4.0370     2.4590 c3         1 AUK       0.004800
     20 C16         -1.3970     5.4140     2.9720 c2         1 AUK      -0.164200
     21 C17         -0.6920     6.4480     2.5860 c2         1 AUK      -0.149400
     22 C24          0.5460     6.2470     1.7500 c3         1 AUK       0.055100
     23 C18         -1.1180     7.8390     2.9780 c3         1 AUK       0.034800
     24 C19         -0.3720     8.2640     4.2440 c3         1 AUK       0.006800
     25 C20         -0.7990     9.6550     4.6360 c2         1 AUK      -0.173200
     26 C21         -1.4130     9.8560     5.7760 c2         1 AUK      -0.146400
     27 C22         -1.7520     8.6870     6.6650 c3         1 AUK       0.059100
     28 C25         -1.7780    11.2550     6.2000 c3         1 AUK       0.059100
     29 H28          3.6940    -0.8180     3.1140 hc         1 AUK       0.025367
     30 H28A         5.1060    -0.1220     2.3080 hc         1 AUK       0.025367
     31 H28B         3.8760     0.9380     3.0100 hc         1 AUK       0.025367
     32 HO26         5.7400     0.8830     0.0330 ho         1 AUK       0.406000
     33 H4           5.2060    -0.0050    -2.3400 ha         1 AUK       0.118000
     34 H5           4.0450    -0.0070    -4.5070 ha         1 AUK       0.101000
     35 H6           1.5870    -0.0050    -4.6090 ha         1 AUK       0.109000
     36 H1           0.2590    -0.0000    -2.5520 ha         1 AUK       0.125000
     37 H11          0.3130    -0.5840     2.4410 hc         1 AUK       0.033200
     38 H11A         1.8550    -0.4310     3.2940 hc         1 AUK       0.033200
     39 H12          1.6550     2.1500     3.0490 ha         1 AUK       0.099000
     40 H23         -1.2660    -0.1700     3.3840 hc         1 AUK       0.018033
     41 H23A        -2.4230     1.1560     3.2020 hc         1 AUK       0.018033
     42 H23B        -1.5370     0.5560     1.7930 hc         1 AUK       0.018033
     43 H14          0.1330     3.5280     4.1730 hc         1 AUK       0.015200
     44 H14A        -1.5680     3.0620     4.3050 hc         1 AUK       0.015200
     45 H15         -1.9090     3.6330     1.9230 hc         1 AUK       0.027700
     46 H15A        -0.2080     4.1000     1.7910 hc         1 AUK       0.027700
     47 H16         -2.2870     5.5610     3.5730 ha         1 AUK       0.105000
     48 H24          0.9690     7.2110     1.4930 hc         1 AUK       0.008367
     49 H24A         0.2880     5.7120     0.8440 hc         1 AUK       0.008367
     50 H24B         1.2730     5.6730     2.3130 hc         1 AUK       0.008367
     51 H18         -0.8860     8.5280     2.1740 hc         1 AUK       0.017700
     52 H18A        -2.1850     7.8510     3.1660 hc         1 AUK       0.017700
     53 H19         -0.6040     7.5750     5.0480 hc         1 AUK       0.023700
     54 H19A         0.6950     8.2530     4.0560 hc         1 AUK       0.023700
     55 H20         -0.5560    10.4950     3.9970 ha         1 AUK       0.105000
     56 H22         -2.3340     9.0330     7.5100 hc         1 AUK       0.007033
     57 H22A        -2.3270     7.9610     6.1030 hc         1 AUK       0.007033
     58 H22B        -0.8380     8.2270     7.0200 hc         1 AUK       0.007033
     59 H25         -1.9380    11.2780     7.2710 hc         1 AUK       0.007033
     60 H25A        -2.6850    11.5610     5.6920 hc         1 AUK       0.007033
     61 H25B        -0.9730    11.9320     5.9400 hc         1 AUK       0.007033
@<TRIPOS>BOND
     1     1     2 2   
     2     2     3 1   
     3     2    13 1   
     4     3     4 2   
     5     3    14 1   
     6     4     5 1   
     7     4     6 1   
     8     5    29 1   
     9     5    30 1   
    10     5    31 1   
    11     6     7 1   
    12     6     8 1   
    13     7    32 1   
    14     8     9 ar  
    15     8    13 ar  
    16     9    10 ar  
    17     9    33 1   
    18    10    11 ar  
    19    10    34 1   
    20    11    12 ar  
    21    11    35 1   
    22    12    13 ar  
    23    12    36 1   
    24    14    15 1   
    25    14    37 1   
    26    14    38 1   
    27    15    16 2   
    28    15    39 1   
    29    16    17 1   
    30    16    18 1   
    31    17    40 1   
    32    17    41 1   
    33    17    42 1   
    34    18    19 1   
    35    18    43 1   
    36    18    44 1   
    37    19    20 1   
    38    19    45 1   
    39    19    46 1   
    40    20    21 2   
    41    20    47 1   
    42    21    22 1   
    43    21    23 1   
    44    22    48 1   
    45    22    49 1   
    46    22    50 1   
    47    23    24 1   
    48    23    51 1   
    49    23    52 1   
    50    24    25 1   
    51    24    53 1   
    52    24    54 1   
    53    25    26 2   
    54    25    55 1   
    55    26    27 1   
    56    26    28 1   
    57    27    56 1   
    58    27    57 1   
    59    27    58 1   
    60    28    59 1   
    61    28    60 1   
    62    28    61 1   
@<TRIPOS>SUBSTRUCTURE
     1 AUK         1 TEMP              0 ****  ****    0 ROOT
