@<TRIPOS>MOLECULE
molecule
   61    62     1     0     0
SMALL
bcc


@<TRIPOS>ATOM
      1 O27          0.0000     0.0000     0.0000 o          1 AUK      -0.589100
      2 C7           1.2200     0.0000     0.0000 c          1 AUK       0.588900
      3 C8           1.9500     0.0000     1.2120 cc         1 AUK      -0.353400
      4 C9           3.2990    -0.0000     1.1880 cd         1 AUK       0.221800
      5 C28          4.0470    -0.0000     2.4970 c3         1 AUK      -0.073900
      6 N10          4.0080    -0.0020     0.0340 na         1 AUK      -0.309300
      7 O26          5.4220    -0.0030     0.0920 oh         1 AUK      -0.320300
      8 C3           3.3860    -0.0020    -1.1950 ca         1 AUK       0.179600
      9 C4           4.1240    -0.0040    -2.3750 ca         1 AUK      -0.179000
     10 C5           3.4710    -0.0050    -3.5890 ca         1 AUK      -0.071000
     11 C6           2.0840    -0.0040    -3.6470 ca         1 AUK      -0.167000
     12 C1           1.3410    -0.0020    -2.4990 ca         1 AUK      -0.038000
     13 C2           1.9810    -0.0070    -1.2610 ca         1 AUK      -0.195600
     14 C11          1.2210     0.0010     2.5300 c3         1 AUK      -0.007000
     15 C12          0.8700     1.4170     2.9090 c2         1 AUK      -0.562200
     16 C13         -0.3800     1.7470     3.1240 c2         1 AUK       0.056600
     17 C23         -1.4790     0.7520     2.8570 c3         1 AUK      -0.134900
     18 C14         -0.7170     3.1240     3.6370 c3         1 AUK      -0.074200
     19 C15         -1.0590     4.0370     2.4590 c3         1 AUK      -0.090200
     20 C16         -1.3970     5.4140     2.9720 c2         1 AUK      -0.515200
     21 C17         -0.6920     6.4480     2.5860 c2         1 AUK       0.023600
     22 C24          0.5460     6.2470     1.7500 c3         1 AUK      -0.129900
     23 C18         -1.1180     7.8390     2.9780 c3         1 AUK      -0.002200
     24 C19         -0.3720     8.2640     4.2440 c3         1 AUK      -0.086200
     25 C20         -0.7990     9.6550     4.6360 c2         1 AUK      -0.528200
     26 C21         -1.4130     9.8560     5.7760 c2         1 AUK       0.035600
     27 C22         -1.7520     8.6870     6.6650 c3         1 AUK      -0.097900
     28 C25         -1.7780    11.2550     6.2000 c3         1 AUK      -0.097900
     29 H28          5.1110     0.0560     2.3050 hc         1 AUK       0.071367
     30 H28A         3.8250    -0.9120     3.0390 hc         1 AUK       0.071367
     31 H28B         3.7410     0.8550     3.0880 hc         1 AUK       0.071367
     32 HO26         5.7410     0.8820     0.0190 ho         1 AUK       0.412000
     33 H4           5.2060    -0.0050    -2.3400 ha         1 AUK       0.145000
     34 H5           4.0450    -0.0070    -4.5070 ha         1 AUK       0.138000
     35 H6           1.5870    -0.0050    -4.6090 ha         1 AUK       0.139000
     36 H1           0.2590    -0.0000    -2.5520 ha         1 AUK       0.161000
     37 H11          0.3130    -0.5840     2.4410 hc         1 AUK       0.068700
     38 H11A         1.8550    -0.4310     3.2940 hc         1 AUK       0.068700
     39 H12          0.7980     1.0690     1.8860 ha         1 AUK       0.360000
     40 H23         -1.5590     0.5800     1.7910 hc         1 AUK       0.060033
     41 H23A        -1.2500    -0.1810     3.3580 hc         1 AUK       0.060033
     42 H23B        -2.4170     1.1430     3.2310 hc         1 AUK       0.060033
     43 H14         -1.5680     3.0620     4.3050 hc         1 AUK       0.067700
     44 H14A         0.1330     3.5280     4.1730 hc         1 AUK       0.067700
     45 H15         -1.9090     3.6330     1.9230 hc         1 AUK       0.063700
     46 H15A        -0.2080     4.1000     1.7910 hc         1 AUK       0.063700
     47 H16         -0.6210     4.8150     3.4320 ha         1 AUK       0.340000
     48 H24          0.9850     7.2100     1.5170 hc         1 AUK       0.051367
     49 H24A         0.2830     5.7380     0.8310 hc         1 AUK       0.051367
     50 H24B         1.2610     5.6480     2.3020 hc         1 AUK       0.051367
     51 H18         -0.8860     8.5280     2.1740 hc         1 AUK       0.074700
     52 H18A        -2.1850     7.8510     3.1660 hc         1 AUK       0.074700
     53 H19         -0.6040     7.5750     5.0480 hc         1 AUK       0.033700
     54 H19A         0.6950     8.2530     4.0560 hc         1 AUK       0.033700
     55 H20          0.0420     9.1110     5.0480 ha         1 AUK       0.340000
     56 H22         -2.3510     7.9750     6.1110 hc         1 AUK       0.053033
     57 H22A        -0.8380     8.2090     6.9970 hc         1 AUK       0.053033
     58 H22B        -2.3090     9.0380     7.5250 hc         1 AUK       0.053033
     59 H25         -2.8480    11.3930     6.1050 hc         1 AUK       0.053033
     60 H25A        -1.2640    11.9690     5.5680 hc         1 AUK       0.053033
     61 H25B        -1.4840    11.4080     7.2310 hc         1 AUK       0.053033
@<TRIPOS>BOND
     1     1     2 2
     2     2     3 1
     3     2    13 1
     4     3     4 2
     5     3    14 1
     6     4     5 1
     7     4     6 1
     8     6     7 1
     9     6     8 1
    10     8     9 ar
    11     8    13 ar
    12     9    10 ar
    13    10    11 ar
    14    11    12 ar
    15    12    13 ar
    16    14    15 1
    17    15    16 2
    18    16    17 1
    19    16    18 1
    20    18    19 1
    21    19    20 1
    22    20    21 2
    23    21    22 1
    24    21    23 1
    25    23    24 1
    26    24    25 1
    27    25    26 2
    28    26    27 1
    29    26    28 1
    30     5    29 1
    31     5    30 1
    32     5    31 1
    33     7    32 1
    34     9    33 1
    35    10    34 1
    36    11    35 1
    37    12    36 1
    38    14    37 1
    39    14    38 1
    40    15    39 1
    41    17    40 1
    42    17    41 1
    43    17    42 1
    44    18    43 1
    45    18    44 1
    46    19    45 1
    47    19    46 1
    48    20    47 1
    49    22    48 1
    50    22    49 1
    51    22    50 1
    52    23    51 1
    53    23    52 1
    54    24    53 1
    55    24    54 1
    56    25    55 1
    57    27    56 1
    58    27    57 1
    59    27    58 1
    60    28    59 1
    61    28    60 1
    62    28    61 1
@<TRIPOS>SUBSTRUCTURE
     1 AUK         1 TEMP              0 ****  ****    0 ROOT
