@<TRIPOS>MOLECULE
AUN
   50    53     1     0     0
SMALL
bcc


@<TRIPOS>ATOM
      1 C10          0.0000     0.0000     0.0000 cc         1 AUN       0.361800
      2 N12          1.7520     0.0000     1.3100 na         1 AUN       0.288100
      3 C13          3.1320     0.0000     1.8010 c3         1 AUN      -0.007400
      4 C21         -5.9420     2.3480    -9.8960 cc         1 AUN      -0.379600
      5 C22         -4.9230     2.3700   -10.7960 cd         1 AUN       0.357200
      6 C24         -7.3310     2.7970   -10.1240 ca         1 AUN       0.032000
      7 C26         -9.0070     3.7210   -11.5750 ca         1 AUN      -0.071000
      8 C01         -2.2220    -1.2620    -6.2820 c3         1 AUN      -0.032100
      9 C02         -2.6710     0.1210    -5.8040 c3         1 AUN       0.101100
     10 C04         -2.5100    -0.0010    -3.4350 ca         1 AUN       0.137100
     11 C05         -3.0720    -0.0010    -2.1660 ca         1 AUN      -0.179000
     12 C06         -2.2600    -0.0010    -1.0500 ca         1 AUN      -0.048000
     13 C07         -0.8750    -0.0010    -1.1980 ca         1 AUN      -0.134500
     14 C08         -0.3140    -0.0000    -2.4730 ca         1 AUN      -0.048000
     15 C09         -1.1300    -0.0060    -3.5850 ca         1 AUN      -0.179000
     16 C11          1.3590     0.0000     0.0000 cd         1 AUN      -0.427600
     17 C14          0.6330     0.0100     2.0670 cd         1 AUN       0.223400
     18 N15         -0.4100     0.0060     1.2840 nc         1 AUN      -0.609000
     19 C16         -3.6370     0.7070    -6.8000 c          1 AUN       0.553100
     20 O17         -4.7900     0.9090    -6.4790 o          1 AUN      -0.641100
     21 N18         -3.2220     1.0070    -8.0470 ns         1 AUN      -0.053400
     22 C19         -4.1130     1.5480    -8.9620 cc         1 AUN       0.170400
     23 N20         -5.4240     1.8200    -8.7280 na         1 AUN       0.253100
     24 N23         -3.8280     1.8810   -10.2000 nd         1 AUN      -0.654000
     25 C25         -7.7080     3.3060   -11.3680 ca         1 AUN      -0.104000
     26 C27         -9.9360     3.6340   -10.5520 ca         1 AUN       0.026100
     27 C29         -9.5690     3.1260    -9.3180 ca         1 AUN      -0.071000
     28 C30         -8.2740     2.7070    -9.0980 ca         1 AUN      -0.104000
     29 Br1        -11.7130     4.2140   -10.8420 br         1 AUN      -0.132100
     30 H1           3.4060     1.0020     2.1090 h1         1 AUN       0.023033
     31 H2           3.7970    -0.3290     1.0120 h1         1 AUN       0.023033
     32 H3           3.2150    -0.6720     2.6470 h1         1 AUN       0.023033
     33 H4          -4.9860     2.7240   -11.8180 h4         1 AUN       0.007100
     34 H5          -9.3000     4.1190   -12.5390 ha         1 AUN       0.117000
     35 H6          -2.1080    -1.9200    -5.4290 hc         1 AUN       0.021367
     36 H7          -1.2750    -1.1750    -6.8000 hc         1 AUN       0.021367
     37 H8          -2.9660    -1.6700    -6.9560 hc         1 AUN       0.021367
     38 H9          -1.8080     0.7690    -5.7140 h1         1 AUN       0.035700
     39 H10         -4.1490    -0.0010    -2.0510 ha         1 AUN       0.118000
     40 H11         -2.7000    -0.0010    -0.0600 ha         1 AUN       0.113500
     41 H12          0.7630    -0.0050    -2.5910 ha         1 AUN       0.113500
     42 H13         -0.6930    -0.0060    -4.5770 ha         1 AUN       0.118000
     43 H14          1.9960     0.1900    -0.8550 h4         1 AUN       0.156000
     44 H15          0.6060     0.0150     3.1500 h5         1 AUN       0.023100
     45 H16         -2.2630     0.8760    -8.2990 hn         1 AUN       0.183500
     46 H17         -5.9200     1.6710    -7.8710 hn         1 AUN       0.176700
     47 H19         -6.9830     3.3740   -12.1690 ha         1 AUN       0.111500
     48 H20        -10.3010     3.0580    -8.5220 ha         1 AUN       0.117000
     49 H21         -7.9880     2.3090    -8.1320 ha         1 AUN       0.111500
     50 O03         -3.3120    -0.0010    -4.5320 os         1 AUN      -0.264900
@<TRIPOS>BOND
     1     1    13 1   
     2     1    16 2   
     3     1    18 1   
     4     2     3 1   
     5     2    16 1   
     6     2    17 1   
     7     3    30 1   
     8     3    31 1   
     9     3    32 1   
    10     4     5 2   
    11     4     6 1   
    12     4    23 1   
    13     5    24 1   
    14     5    33 1   
    15     6    25 ar  
    16     6    28 ar  
    17     7    25 ar  
    18     7    26 ar  
    19     7    34 1   
    20     8     9 1   
    21     8    35 1   
    22     8    36 1   
    23     8    37 1   
    24     9    19 1   
    25     9    38 1   
    26     9    50 1   
    27    10    11 ar  
    28    10    15 ar  
    29    10    50 1   
    30    11    12 ar  
    31    11    39 1   
    32    12    13 ar  
    33    12    40 1   
    34    13    14 ar  
    35    14    15 ar  
    36    14    41 1   
    37    15    42 1   
    38    16    43 1   
    39    17    18 2   
    40    17    44 1   
    41    19    20 2   
    42    19    21 1   
    43    21    22 1   
    44    21    45 1   
    45    22    23 1   
    46    22    24 2   
    47    23    46 1   
    48    25    47 1   
    49    26    27 ar  
    50    26    29 1   
    51    27    28 ar  
    52    27    48 1   
    53    28    49 1   
@<TRIPOS>SUBSTRUCTURE
     1 AUN         1 TEMP              0 ****  ****    0 ROOT
