@<TRIPOS>MOLECULE
AUP
   48    52     1     0     0
SMALL
bcc


@<TRIPOS>ATOM
      1 C1         -0.0610   -0.2120    0.1320 cc        1 AUP     -0.043800
      2 C2          1.4080   -0.1880    0.1620 cc        1 AUP     -0.043800
      3 C3          2.1600   -0.6960    1.3290 c3        1 AUP     -0.032600
      4 C4          1.2980   -0.8260    2.5700 c3        1 AUP     -0.075400
      5 C5         -0.0140   -1.5120    2.2580 c3        1 AUP     -0.075400
      6 C6         -0.8440   -0.6930    1.2890 c3        1 AUP     -0.032600
      7 C7         -0.5560    0.2680   -1.0400 cd        1 AUP     -0.245000
      8 P           0.7060    0.5730   -2.1230 p3        1 AUP      0.108000
      9 C9          1.9350    0.3100   -0.9890 cd        1 AUP     -0.245000
     10 N14         3.9350    1.6780   -0.9800 nb        1 AUP     -0.655500
     11 C15         5.2310    1.8340   -1.2970 ca        1 AUP      0.395700
     12 C16         6.0090    0.8570   -1.9440 ca        1 AUP     -0.249800
     13 C17         5.3990   -0.3530   -2.2710 ca        1 AUP     -0.094500
     14 C18         4.0550   -0.5430   -1.9540 ca        1 AUP     -0.236300
     15 C19         3.3380    0.5000   -1.3160 ca        1 AUP      0.481800
     16 C24         0.7440    4.7710   -3.5490 ca        1 AUP     -0.108000
     17 C25         1.2370    3.7320   -4.3420 ca        1 AUP     -0.141500
     18 C26         1.2180    2.4250   -3.8590 ca        1 AUP     -0.077500
     19 C27         0.7100    2.1650   -2.5870 ca        1 AUP     -0.025000
     20 C28         0.2190    3.1930   -1.7960 ca        1 AUP     -0.077500
     21 C29         0.2330    4.5040   -2.2790 ca        1 AUP     -0.141500
     22 N35        -2.6160    1.5440   -1.1920 nb        1 AUP     -0.655500
     23 C36        -1.9510    0.3800   -1.4350 ca        1 AUP      0.481800
     24 C37        -2.5910   -0.7310   -2.0400 ca        1 AUP     -0.236300
     25 C38        -3.9280   -0.6240   -2.4230 ca        1 AUP     -0.094500
     26 C39        -4.6060    0.5720   -2.1890 ca        1 AUP     -0.249800
     27 C40        -3.9020    1.6200   -1.5690 ca        1 AUP      0.395700
     28 H31         2.5880   -1.7030    1.0670 hc        1 AUP      0.057950
     29 H32         3.0260   -0.0130    1.5440 hc        1 AUP      0.057950
     30 H41         1.8570   -1.4110    3.3460 hc        1 AUP      0.043200
     31 H42         1.0950    0.1920    2.9950 hc        1 AUP      0.043200
     32 H51         0.1870   -2.5250    1.8210 hc        1 AUP      0.043200
     33 H52        -0.5970   -1.6630    3.2040 hc        1 AUP      0.043200
     34 H61        -1.7170   -1.3030    0.9300 hc        1 AUP      0.057950
     35 H62        -1.2660    0.2030    1.8250 hc        1 AUP      0.057950
     36 H16         7.0640    1.0480   -2.1770 ha        1 AUP      0.142000
     37 H17         5.9690   -1.1500   -2.7700 ha        1 AUP      0.137000
     38 H18         3.5540   -1.4920   -2.1920 ha        1 AUP      0.145500
     39 H24         0.7590    5.8030   -3.9290 ha        1 AUP      0.128000
     40 H25         1.6390    3.9450   -5.3430 ha        1 AUP      0.131500
     41 H26         1.5980    1.5910   -4.4660 ha        1 AUP      0.143500
     42 H28        -0.1880    2.9660   -0.7990 ha        1 AUP      0.143500
     43 H29        -0.1560    5.3230   -1.6570 ha        1 AUP      0.131500
     44 H37        -2.0360   -1.6640   -2.2040 ha        1 AUP      0.145500
     45 H38        -4.4380   -1.4730   -2.9000 ha        1 AUP      0.137000
     46 H39        -5.6570    0.6980   -2.4760 ha        1 AUP      0.142000
     47 H40        -4.3990    2.5840   -1.3570 h4        1 AUP      0.021100
     48 H15         5.6710    2.8070   -1.0100 h4        1 AUP      0.021100
@<TRIPOS>BOND
     1    1    2 1   
     2    1    6 1   
     3    1    7 2   
     4    2    3 1   
     5    2    9 2   
     6    3    4 1   
     7    3   28 1   
     8    3   29 1   
     9    4    5 1   
    10    4   30 1   
    11    4   31 1   
    12    5    6 1   
    13    5   32 1   
    14    5   33 1   
    15    6   34 1   
    16    6   35 1   
    17    7    8 1   
    18    7   23 1   
    19    8    9 1   
    20    8   19 1   
    21    9   15 1   
    22   10   11 ar  
    23   10   15 ar  
    24   11   12 ar  
    25   11   48 1   
    26   12   13 ar  
    27   12   36 1   
    28   13   14 ar  
    29   13   37 1   
    30   14   15 ar  
    31   14   38 1   
    32   16   17 ar  
    33   16   21 ar  
    34   16   39 1   
    35   17   18 ar  
    36   17   40 1   
    37   18   19 ar  
    38   18   41 1   
    39   19   20 ar  
    40   20   21 ar  
    41   20   42 1   
    42   21   43 1   
    43   22   23 ar  
    44   22   27 ar  
    45   23   24 ar  
    46   24   25 ar  
    47   24   44 1   
    48   25   26 ar  
    49   25   45 1   
    50   26   27 ar  
    51   26   46 1   
    52   27   47 1   
@<TRIPOS>SUBSTRUCTURE
     1 AUP         1 TEMP              0 ****  ****    0 ROOT
