@<TRIPOS>MOLECULE
molecule
   48    52     1     0     0
SMALL
bcc


@<TRIPOS>ATOM
      1 C1           0.0000     0.0000     0.0000 cc         1 AUP      -0.046800
      2 C2           1.3840     0.0000     0.0000 cc         1 AUP      -0.046800
      3 C3           2.2130     0.0000     1.2860 c3         1 AUP      -0.027600
      4 C4           1.3270     0.4320     2.4530 c3         1 AUP      -0.092400
      5 C5           0.0580    -0.4260     2.4540 c3         1 AUP      -0.092400
      6 C6          -0.8270     0.0040     1.2860 c3         1 AUP      -0.027600
      7 C7          -0.6840    -0.0020    -1.2260 cd         1 AUP      -0.152000
      8 P            0.6920    -0.0030    -2.4390 p3         1 AUP      -0.182000
      9 C9           2.0690    -0.0020    -1.2270 cd         1 AUP      -0.152000
     10 N14          4.3690     0.0050    -0.4510 nb         1 AUP      -0.694500
     11 C15          5.6740    -0.0010    -0.6330 ca         1 AUP       0.422200
     12 C16          6.2150    -0.0030    -1.9060 ca         1 AUP      -0.258800
     13 C17          5.3680    -0.0050    -3.0060 ca         1 AUP      -0.091000
     14 C18          4.0020    -0.0050    -2.7890 ca         1 AUP      -0.234300
     15 C19          3.5250    -0.0030    -1.4770 ca         1 AUP       0.516300
     16 C24          0.6930     4.5380    -3.0490 ca         1 AUP      -0.121000
     17 C25          1.5950     3.7490    -3.7390 ca         1 AUP      -0.131000
     18 C26          1.5990     2.3800    -3.5580 ca         1 AUP      -0.109000
     19 C27          0.6920     1.7940    -2.6810 ca         1 AUP       0.076000
     20 C28         -0.2170     2.5910    -1.9930 ca         1 AUP      -0.109000
     21 C29         -0.2100     3.9590    -2.1750 ca         1 AUP      -0.131000
     22 N35         -2.9850    -0.0060    -0.4500 nb         1 AUP      -0.694500
     23 C36         -2.1400    -0.0020    -1.4750 ca         1 AUP       0.516300
     24 C37         -2.6180    -0.0030    -2.7880 ca         1 AUP      -0.234300
     25 C38         -3.9840    -0.0050    -3.0040 ca         1 AUP      -0.091000
     26 C39         -4.8300    -0.0030    -1.9040 ca         1 AUP      -0.258800
     27 C40         -4.2900    -0.0010    -0.6320 ca         1 AUP       0.422200
     28 H31          2.5920    -0.9980     1.4710 hc         1 AUP       0.072700
     29 H32          3.0380     0.6940     1.1840 hc         1 AUP       0.072700
     30 H41          1.0580     1.4750     2.3380 hc         1 AUP       0.044950
     31 H42          1.8610     0.2900     3.3850 hc         1 AUP       0.044950
     32 H51          0.3470    -1.4580     2.3000 hc         1 AUP       0.044950
     33 H52         -0.4790    -0.2360     3.3750 hc         1 AUP       0.044950
     34 H61         -1.6220    -0.7240     1.1790 hc         1 AUP       0.072700
     35 H62         -1.1620     1.0180     1.4700 hc         1 AUP       0.072700
     36 H16          7.2890    -0.0060    -2.0430 ha         1 AUP       0.137000
     37 H17          5.7680    -0.0070    -4.0120 ha         1 AUP       0.138500
     38 H18          3.3130    -0.0060    -3.6250 ha         1 AUP       0.144500
     39 H24          0.6950     5.6120    -3.1920 ha         1 AUP       0.128000
     40 H25          2.3010     4.2050    -4.4220 ha         1 AUP       0.130000
     41 H26          2.3060     1.7630    -4.0990 ha         1 AUP       0.139500
     42 H28         -0.9250     2.1390    -1.3080 ha         1 AUP       0.139500
     43 H29         -0.9160     4.5800    -1.6380 ha         1 AUP       0.130000
     44 H37         -1.9290    -0.0050    -3.6240 ha         1 AUP       0.144500
     45 H38         -4.3850    -0.0060    -4.0110 ha         1 AUP       0.138500
     46 H39         -5.9050    -0.0020    -2.0420 ha         1 AUP       0.137000
     47 H40         -4.9490    -0.0030     0.2280 h4         1 AUP       0.022600
     48 H15          6.3330     0.0030     0.2270 h4         1 AUP       0.022600
@<TRIPOS>BOND
     1     1     2 1
     2     1     6 1
     3     1     7 2
     4     2     3 1
     5     2     9 2
     6     3     4 1
     7     3    28 1
     8     3    29 1
     9     4     5 1
    10     4    30 1
    11     4    31 1
    12     5     6 1
    13     5    32 1
    14     5    33 1
    15     6    34 1
    16     6    35 1
    17     7     8 1
    18     7    23 1
    19     8     9 1
    20     8    19 1
    21     9    15 1
    22    10    11 ar
    23    10    15 ar
    24    11    12 ar
    25    11    48 1
    26    12    13 ar
    27    12    36 1
    28    13    14 ar
    29    13    37 1
    30    14    15 ar
    31    14    38 1
    32    16    17 ar
    33    16    21 ar
    34    16    39 1
    35    17    18 ar
    36    17    40 1
    37    18    19 ar
    38    18    41 1
    39    19    20 ar
    40    20    21 ar
    41    20    42 1
    42    21    43 1
    43    22    23 ar
    44    22    27 ar
    45    23    24 ar
    46    24    25 ar
    47    24    44 1
    48    25    26 ar
    49    25    45 1
    50    26    27 ar
    51    26    46 1
    52    27    47 1
@<TRIPOS>SUBSTRUCTURE
     1 AUP         1 TEMP              0 ****  ****    0 ROOT
