@<TRIPOS>MOLECULE
AUQ
   37    38     1     0     0
SMALL
bcc


@<TRIPOS>ATOM
      1 C10          0.0000     0.0000     0.0000 c          1 AUQ       0.556100
      2 N12          1.3480     0.0000     0.0000 ns         1 AUQ      -0.038100
      3 C13          2.0480     0.0000     1.2120 ca         1 AUQ      -0.090400
      4 C15          3.9320     0.6960     2.5210 ca         1 AUQ      -0.067000
      5 C20         -2.4110    -0.8350    -3.2280 ca         1 AUQ      -0.134500
      6 C21         -3.2320    -1.2690    -4.2510 ca         1 AUQ      -0.133000
      7 C01         -6.8270    -1.5910    -4.8810 c3         1 AUQ       0.243700
      8 C03         -4.6100    -1.2310    -4.0990 ca         1 AUQ       0.114100
      9 C04         -5.1640    -0.7580    -2.9190 ca         1 AUQ      -0.133000
     10 C05         -4.3440    -0.3240    -1.8960 ca         1 AUQ      -0.134500
     11 C06         -2.9670    -0.3610    -2.0490 ca         1 AUQ       0.104100
     12 O07         -2.1580     0.0650    -1.0410 os         1 AUQ      -0.263900
     13 C08         -0.7530     0.0890    -1.3010 c3         1 AUQ       0.092100
     14 C09         -0.3890     1.3930    -2.0140 c3         1 AUQ      -0.032100
     15 O11         -0.6060    -0.0760     1.0480 o          1 AUQ      -0.601100
     16 C14          3.2440     0.6970     1.3250 ca         1 AUQ      -0.111500
     17 C16          3.4320     0.0010     3.6080 ca         1 AUQ       0.190900
     18 C18          2.2380    -0.6900     3.5010 ca         1 AUQ      -0.067000
     19 C19          1.5460    -0.6920     2.3060 ca         1 AUQ      -0.111500
     20 I17          4.4850    -0.0060     5.4190 i          1 AUQ      -0.295900
     21 H1           1.8480    -0.0430    -0.8660 hn         1 AUQ       0.168500
     22 H2           4.8660     1.2380     2.6090 ha         1 AUQ       0.118500
     23 H3          -1.3350    -0.8640    -3.3470 ha         1 AUQ       0.118500
     24 H4          -2.7990    -1.6390    -5.1730 ha         1 AUQ       0.118000
     25 H5          -7.0850    -2.2010    -4.0240 h1         1 AUQ      -0.002967
     26 H6          -7.0870    -0.5580    -4.6820 h1         1 AUQ      -0.002967
     27 H7          -7.3730    -1.9390    -5.7500 h1         1 AUQ      -0.002967
     28 H8          -6.2400    -0.7290    -2.7990 ha         1 AUQ       0.118000
     29 H9          -4.7770     0.0460    -0.9740 ha         1 AUQ       0.118500
     30 H10         -0.4880    -0.7520    -1.9300 h1         1 AUQ       0.033700
     31 H11          0.1210     1.1660    -2.9430 hc         1 AUQ       0.019700
     32 H12         -1.2920     1.9540    -2.2250 hc         1 AUQ       0.019700
     33 H13          0.2620     1.9820    -1.3790 hc         1 AUQ       0.019700
     34 H14          3.6370     1.2410     0.4740 ha         1 AUQ       0.129000
     35 H15          1.8470    -1.2320     4.3540 ha         1 AUQ       0.118500
     36 H16          0.6110    -1.2330     2.2220 ha         1 AUQ       0.129000
     37 O02         -5.4180    -1.6570    -5.1070 os         1 AUQ      -0.309900
@<TRIPOS>BOND
     1     1     2 1   
     2     1    13 1   
     3     1    15 2   
     4     2     3 1   
     5     2    21 1   
     6     3    16 ar  
     7     3    19 ar  
     8     4    16 ar  
     9     4    17 ar  
    10     4    22 1   
    11     5     6 ar  
    12     5    11 ar  
    13     5    23 1   
    14     6     8 ar  
    15     6    24 1   
    16     7    25 1   
    17     7    26 1   
    18     7    27 1   
    19     7    37 1   
    20     8     9 ar  
    21     8    37 1   
    22     9    10 ar  
    23     9    28 1   
    24    10    11 ar  
    25    10    29 1   
    26    11    12 1   
    27    12    13 1   
    28    13    14 1   
    29    13    30 1   
    30    14    31 1   
    31    14    32 1   
    32    14    33 1   
    33    16    34 1   
    34    17    18 ar  
    35    17    20 1   
    36    18    19 ar  
    37    18    35 1   
    38    19    36 1   
@<TRIPOS>SUBSTRUCTURE
     1 AUQ         1 TEMP              0 ****  ****    0 ROOT
