@<TRIPOS>MOLECULE
molecule
   37    38     1     0     0
SMALL
bcc


@<TRIPOS>ATOM
      1 C10          0.0000     0.0000     0.0000 c          1 AUQ       0.660100
      2 N12          1.3480     0.0000     0.0000 ns         1 AUQ      -0.482100
      3 C13          2.0480     0.0000     1.2120 ca         1 AUQ       0.069600
      4 C15          3.9320     0.6960     2.5210 ca         1 AUQ      -0.082000
      5 C20         -2.4110    -0.8350    -3.2280 ca         1 AUQ      -0.151000
      6 C21         -3.2320    -1.2690    -4.2510 ca         1 AUQ      -0.152000
      7 C01         -6.8270    -1.5910    -4.8810 c3         1 AUQ       0.129700
      8 C03         -4.6100    -1.2310    -4.0990 ca         1 AUQ       0.109100
      9 C04         -5.1640    -0.7580    -2.9190 ca         1 AUQ      -0.152000
     10 C05         -4.3440    -0.3240    -1.8960 ca         1 AUQ      -0.151000
     11 C06         -2.9670    -0.3610    -2.0490 ca         1 AUQ       0.102100
     12 O07         -2.1580     0.0650    -1.0410 os         1 AUQ      -0.295900
     13 C08         -0.7530     0.0890    -1.3010 c3         1 AUQ       0.070100
     14 C09         -0.3890     1.3930    -2.0140 c3         1 AUQ      -0.122100
     15 O11         -0.6060    -0.0760     1.0480 o          1 AUQ      -0.556100
     16 C14          3.2440     0.6970     1.3250 ca         1 AUQ      -0.145500
     17 C16          3.4320     0.0010     3.6080 ca         1 AUQ       0.038900
     18 C18          2.2380    -0.6900     3.5010 ca         1 AUQ      -0.082000
     19 C19          1.5460    -0.6920     2.3060 ca         1 AUQ      -0.145500
     20 I17          4.4850    -0.0060     5.4190 i          1 AUQ      -0.171900
     21 H1           1.8480    -0.0430    -0.8660 hn         1 AUQ       0.325500
     22 H2           4.8660     1.2380     2.6090 ha         1 AUQ       0.145000
     23 H3          -1.3350    -0.8640    -3.3470 ha         1 AUQ       0.142500
     24 H4          -2.7990    -1.6390    -5.1730 ha         1 AUQ       0.143000
     25 H5          -7.0850    -2.2010    -4.0240 h1         1 AUQ       0.041033
     26 H6          -7.0870    -0.5580    -4.6820 h1         1 AUQ       0.041033
     27 H7          -7.3730    -1.9390    -5.7500 h1         1 AUQ       0.041033
     28 H8          -6.2400    -0.7290    -2.7990 ha         1 AUQ       0.143000
     29 H9          -4.7770     0.0460    -0.9740 ha         1 AUQ       0.142500
     30 H10         -0.4880    -0.7520    -1.9300 h1         1 AUQ       0.062700
     31 H11          0.1210     1.1660    -2.9430 hc         1 AUQ       0.055033
     32 H12         -1.2920     1.9540    -2.2250 hc         1 AUQ       0.055033
     33 H13          0.2620     1.9820    -1.3790 hc         1 AUQ       0.055033
     34 H14          3.6370     1.2410     0.4740 ha         1 AUQ       0.153000
     35 H15          1.8470    -1.2320     4.3540 ha         1 AUQ       0.145000
     36 H16          0.6110    -1.2330     2.2220 ha         1 AUQ       0.153000
     37 O02         -5.4180    -1.6570    -5.1070 os         1 AUQ      -0.331900
@<TRIPOS>BOND
     1    14    13 1
     2    12    13 1
     3    12    11 1
     4     5    11 ar
     5     5     6 ar
     6    13     1 1
     7    11    10 ar
     8     6     8 ar
     9    10     9 ar
    10     8    37 1
    11     8     9 ar
    12     1    15 2
    13     1     2 1
    14    37     7 1
    15     2     3 1
    16     3    19 ar
    17     3    16 ar
    18    19    18 ar
    19    16     4 ar
    20    18    17 ar
    21     4    17 ar
    22    17    20 1
    23     2    21 1
    24     4    22 1
    25     5    23 1
    26     6    24 1
    27     7    25 1
    28     7    26 1
    29     7    27 1
    30     9    28 1
    31    10    29 1
    32    13    30 1
    33    14    31 1
    34    14    32 1
    35    14    33 1
    36    16    34 1
    37    18    35 1
    38    19    36 1
@<TRIPOS>SUBSTRUCTURE
     1 AUQ         1 TEMP              0 ****  ****    0 ROOT
