@<TRIPOS>MOLECULE
AUR
   65    65     1     0     0
SMALL
bcc


@<TRIPOS>ATOM
      1 C1          0.5710    0.3140    0.2830 c3        1 AUR     -0.206000
      2 C2          2.0710    0.4190    0.3780 c3        1 AUR     -0.159000
      3 C3          2.6070   -0.2090    1.6630 c3        1 AUR      0.028000
      4 C4          4.1530   -0.1820    1.7300 c3        1 AUR     -0.029000
      5 C5          4.6980   -0.4110    3.1390 c1        1 AUR      0.093000
      6 C6          2.3090   -2.2820    2.8790 c3        1 AUR     -0.022000
      7 C7          1.8650   -3.7090    2.5240 c3        1 AUR     -0.010000
      8 C8          4.7410   -1.1900   -0.3160 c1        1 AUR     -0.019000
      9 C20         4.7500    1.1100    1.1990 c3        1 AUR     -0.233000
     10 C21         1.4890   -1.7220    4.0230 c3        1 AUR     -0.244000
     11 C24         3.5170    0.4420    6.3250 c3        1 AUR     -0.230000
     12 O3          2.1140   -1.5450    1.6680 os        1 AUR     -0.277000
     13 O4          4.6630   -1.3380    0.9940 os        1 AUR     -0.151000
     14 O5          4.1340    0.4350    3.9970 os        1 AUR     -0.269000
     15 O7          0.5110   -3.7630    2.1330 oh        1 AUR     -0.328000
     16 O25         5.8260    0.5160    5.4610 o         1 AUR     -0.246000
     17 C9          5.2920   -2.4260   -0.9590 c3        1 AUR     -0.200000
     18 C10         4.6050   -2.6580   -2.2550 c2        1 AUR     -0.080000
     19 C11         4.2950   -3.8370   -2.7090 c1        1 AUR     -0.137000
     20 C12         3.9550   -5.0120   -3.1740 c2        1 AUR     -0.110000
     21 C13         4.8220   -5.8200   -4.0070 c2        1 AUR     -0.041000
     22 C14         4.4520   -7.0290   -4.4690 c2        1 AUR     -0.175000
     23 C15         5.2930   -7.8670   -5.3050 c2        1 AUR      0.141000
     24 C16         4.9330   -9.1010   -5.7910 c2        1 AUR     -0.200000
     25 C17         5.8620   -9.8190   -6.6110 c2        1 AUR     -0.004000
     26 C18         7.0810   -9.2930   -6.8970 c2        1 AUR     -0.253000
     27 C19         7.4420   -7.9890   -6.3680 c2        1 AUR      0.340000
     28 C22         3.6150   -9.7060   -5.4960 c3        1 AUR     -0.160000
     29 C23         8.0880   -9.9750   -7.7620 c3        1 AUR      0.027000
     30 O15         6.5190   -7.3020   -5.5760 os        1 AUR     -0.193000
     31 O17         7.9540  -11.3830   -7.7380 oh        1 AUR     -0.324000
     32 O19         8.4790   -7.3360   -6.4900 o         1 AUR     -0.306000
     33 H11A        2.2130    0.3510    2.5580 h1        1 AUR      0.092000
     34 H12A        0.2150    0.7760   -0.6690 hc        1 AUR      0.076000
     35 H13A        0.2520   -0.7570    0.3030 hc        1 AUR      0.076000
     36 H21         0.0820    0.8400    1.1390 hc        1 AUR      0.076000
     37 H22         2.3740    1.4990    0.3620 hc        1 AUR      0.103000
     38 H3          2.5540   -0.0910   -0.4990 hc        1 AUR      0.103000
     39 H5          3.4060   -2.2910    3.1400 h1        1 AUR      0.103000
     40 H7          1.9380   -4.3660    3.4310 h1        1 AUR      0.093500
     41 H8          2.5200   -4.1080    1.7040 h1        1 AUR      0.093500
     42 H201        4.5940    1.1830    0.0940 hc        1 AUR      0.105667
     43 H202        5.8490    1.1290    1.3990 hc        1 AUR      0.105667
     44 H203        4.2690    1.9790    1.7080 hc        1 AUR      0.105667
     45 H211        1.5080   -2.4350    4.8820 hc        1 AUR      0.084667
     46 H212        0.4290   -1.5820    3.6980 hc        1 AUR      0.084667
     47 H213        1.9000   -0.7410    4.3650 hc        1 AUR      0.084667
     48 H241        3.0780   -0.5860    6.3900 hc        1 AUR      0.125667
     49 H242        2.7150    1.1540    6.0100 hc        1 AUR      0.125667
     50 H243        3.9170    0.7410    7.3250 hc        1 AUR      0.125667
     51 HO7         0.4020   -3.1400    1.4030 ho        1 AUR      0.213000
     52 H9          6.3820   -2.2090   -1.1600 hc        1 AUR      0.116000
     53 H10         5.2480   -3.3370   -0.3040 hc        1 AUR      0.116000
     54 H11         4.3660   -1.7470   -2.8370 ha        1 AUR      0.161000
     55 H12         2.9590   -5.4310   -2.9340 ha        1 AUR      0.141000
     56 H13         5.8150   -5.4010   -4.2530 ha        1 AUR      0.154000
     57 H14         3.4640   -7.4610   -4.2330 ha        1 AUR      0.143000
     58 H18         5.5750  -10.8090   -7.0070 ha        1 AUR      0.159000
     59 H221        3.5180  -10.7080   -5.9820 hc        1 AUR      0.085000
     60 H222        2.7890   -9.0530   -5.8740 hc        1 AUR      0.085000
     61 H223        3.4800   -9.8380   -4.3930 hc        1 AUR      0.085000
     62 H231        8.1590  -11.6750   -6.8420 ho        1 AUR      0.200000
     63 H232        7.9240   -9.6970   -8.8410 h1        1 AUR      0.107500
     64 H233        9.1270   -9.6710   -7.4560 h1        1 AUR      0.107500
     65 C25         4.6170    0.4380    5.3320 c2        1 AUR      0.335000
@<TRIPOS>BOND
     1    1    2 1   
     2    1   34 1   
     3    1   35 1   
     4    1   36 1   
     5    2    3 1   
     6    2   37 1   
     7    2   38 1   
     8    3    4 1   
     9    3   12 1   
    10    3   33 1   
    11    4    5 1   
    12    4    9 1   
    13    4   13 1   
    14    5   14 1   
    15    6    7 1   
    16    6   10 1   
    17    6   12 1   
    18    6   39 1   
    19    7   15 1   
    20    7   40 1   
    21    7   41 1   
    22    8   13 1   
    23    8   17 1   
    24    9   42 1   
    25    9   43 1   
    26    9   44 1   
    27   10   45 1   
    28   10   46 1   
    29   10   47 1   
    30   11   48 1   
    31   11   49 1   
    32   11   50 1   
    33   11   65 1   
    34   14   65 1   
    35   15   51 1   
    36   16   65 1   
    37   17   18 1   
    38   17   52 1   
    39   17   53 1   
    40   18   19 1   
    41   18   54 1   
    42   19   20 1   
    43   20   21 1   
    44   20   55 1   
    45   21   22 1   
    46   21   56 1   
    47   22   23 1   
    48   22   57 1   
    49   23   24 1   
    50   23   30 1   
    51   24   25 1   
    52   24   28 1   
    53   25   26 1   
    54   25   58 1   
    55   26   27 1   
    56   26   29 1   
    57   27   30 1   
    58   27   32 1   
    59   28   59 1   
    60   28   60 1   
    61   28   61 1   
    62   29   31 1   
    63   29   63 1   
    64   29   64 1   
    65   31   62 1   
@<TRIPOS>SUBSTRUCTURE
     1 AUR         1 TEMP              0 ****  ****    0 ROOT
