@<TRIPOS>MOLECULE
molecule
   34    35     1     0     0
SMALL
bcc


@<TRIPOS>ATOM
      1 C12          0.0000     0.0000     0.0000 c3         1 AUT       0.241100
      2 C13          2.1960     0.0000     1.1990 ca         1 AUT      -0.050500
      3 C9           3.5760    -0.0030    -1.2070 ca         1 AUT      -0.020600
      4 C8           4.2770    -0.0020    -0.0010 cp         1 AUT       0.138000
      5 C3           7.8110    -1.0750     0.8610 ca         1 AUT      -0.153000
      6 C7           5.5760    -0.3430     0.3810 cp         1 AUT      -0.197000
      7 C11          1.5070     0.0000     0.0000 ca         1 AUT      -0.262300
      8 C14          3.5770    -0.0020     1.2050 ca         1 AUT      -0.020600
      9 Cl1          4.4410    -0.0010     2.7110 cl         1 AUT       0.056600
     10 C10          2.1950    -0.0010    -1.2000 ca         1 AUT      -0.050500
     11 C6           5.6240     0.5150     1.4650 ca         1 AUT      -0.048000
     12 C4           7.8590    -0.2160     1.9460 ca         1 AUT      -0.051000
     13 C5           6.7650     0.5790     2.2490 ca         1 AUT      -0.274000
     14 C2           6.6690    -1.1390     0.0780 ca         1 AUT      -0.004300
     15 C1           7.4420    -0.9080    -1.2140 c3         1 AUT      -0.114100
     16 N           -0.4900     1.3860     0.0010 nz         1 AUT      -0.950600
     17 C            8.2070    -2.1780    -1.5840 c3         1 AUT      -0.039100
     18 H1          -0.3610     0.6570    -0.7820 hx         1 AUT       0.148200
     19 H2          -0.3610     0.3490     0.9600 hx         1 AUT       0.148200
     20 H3           1.6530     0.0060     2.1360 ha         1 AUT       0.147500
     21 H4           8.6650    -1.6970     0.6240 ha         1 AUT       0.159000
     22 H5           1.6500     0.0280    -2.1360 ha         1 AUT       0.147500
     23 H6           5.3490     1.5560     1.3440 ha         1 AUT       0.130000
     24 H7           8.7510    -0.1650     2.5590 ha         1 AUT       0.141000
     25 H8           6.8020     1.2520     3.0980 ha         1 AUT       0.139000
     26 H9           6.9770    -1.4660    -2.0180 hc         1 AUT       0.077700
     27 H10          7.4340     0.1480    -1.4560 hc         1 AUT       0.077700
     28 H11         -0.0380     1.9000    -0.7300 hn         1 AUT       0.439133
     29 H12         -0.2850     1.8120     0.8830 hn         1 AUT       0.439133
     30 H14          7.5620    -3.0390    -1.4570 hc         1 AUT       0.037033
     31 H15          8.5290    -2.1180    -2.6170 hc         1 AUT       0.037033
     32 H16          9.0740    -2.2780    -0.9410 hc         1 AUT       0.037033
     33 HN3         -1.3600     1.4320     0.4930 hn         1 AUT       0.439133
     34 Cl           4.3350    -0.6530    -2.6730 cl         1 AUT       0.056600
@<TRIPOS>BOND
     1    17    15 1
     2    15    14 1
     3    16     1 1
     4     1     7 1
     5    14     5 ar
     6    14     6 ar
     7     2     7 ar
     8     2     8 ar
     9     7    10 ar
    10     9     8 1
    11     8     4 ar
    12     5    12 ar
    13    10     3 ar
    14     4     3 ar
    15     4     6 1
    16     3    34 1
    17     6    11 ar
    18    12    13 ar
    19    11    13 ar
    20     1    18 1
    21     1    19 1
    22     2    20 1
    23     5    21 1
    24    10    22 1
    25    11    23 1
    26    12    24 1
    27    13    25 1
    28    15    26 1
    29    15    27 1
    30    16    28 1
    31    16    29 1
    32    17    30 1
    33    17    31 1
    34    17    32 1
    35    33    16 1
@<TRIPOS>SUBSTRUCTURE
     1 AUT         1 TEMP              0 ****  ****    0 ROOT
