@<TRIPOS>MOLECULE
molecule
   25    26     1     0     0
SMALL
bcc


@<TRIPOS>ATOM
      1 C            0.0000     0.0000     0.0000 c          1 AUV       0.883200
      2 O            1.2140     0.0000     0.0000 o          1 AUV      -0.838800
      3 C1          -0.7390     0.0000     1.2800 ca         1 AUV      -0.111600
      4 O1          -1.3310     1.8380     5.7570 oh         1 AUV      -0.501100
      5 C2          -0.0430     0.0020     2.4890 ca         1 AUV      -0.089000
      6 O2          -0.6750     0.0050    -1.1670 o          1 AUV      -0.838800
      7 C3          -0.7460     0.0030     3.6890 cp         1 AUV      -0.089000
      8 C4          -0.0130     0.0030     4.9780 cp         1 AUV      -0.016000
      9 C10         -2.1400     0.0030     3.6770 ca         1 AUV      -0.116000
     10 C11         -2.8250     0.0020     2.4780 ca         1 AUV      -0.172000
     11 C12         -2.1360     0.0060     1.2820 ca         1 AUV      -0.085000
     12 C5           1.0060    -0.9190     5.2060 ca         1 AUV      -0.097000
     13 C6           1.6850    -0.9130     6.4070 ca         1 AUV      -0.155000
     14 C7           1.3560     0.0050     7.3890 ca         1 AUV      -0.125000
     15 C8           0.3480     0.9250     7.1740 ca         1 AUV      -0.200000
     16 C9          -0.3380     0.9340     5.9700 ca         1 AUV       0.115100
     17 H5          -1.0270     2.6990     5.9910 ho         1 AUV       0.410000
     18 H            1.0360     0.0980     2.4920 ha         1 AUV       0.147000
     19 H6          -2.6880     0.0010     4.6120 ha         1 AUV       0.115000
     20 H7          -3.9090     0.0040     2.4760 ha         1 AUV       0.106000
     21 H8          -2.6780     0.0060     0.3440 ha         1 AUV       0.153000
     22 H1           1.2660    -1.6390     4.4400 ha         1 AUV       0.149000
     23 H2           2.4770    -1.6310     6.5830 ha         1 AUV       0.121000
     24 H3           1.8920     0.0030     8.3310 ha         1 AUV       0.116000
     25 H4           0.0950     1.6410     7.9470 ha         1 AUV       0.120000
@<TRIPOS>BOND
     1    14    15 ar
     2    14    13 ar
     3    15    16 ar
     4    13    12 ar
     5    16     4 1
     6    16     8 ar
     7    12     8 ar
     8     2     1 1
     9     8     7 1
    10     5     7 ar
    11     5     3 ar
    12     7     9 ar
    13     1     3 1
    14     1     6 1
    15     3    11 ar
    16     9    10 ar
    17    11    10 ar
    18     4    17 1
    19     5    18 1
    20     9    19 1
    21    10    20 1
    22    11    21 1
    23    12    22 1
    24    13    23 1
    25    14    24 1
    26    15    25 1
@<TRIPOS>SUBSTRUCTURE
     1 AUV         1 TEMP              0 ****  ****    0 ROOT
