@<TRIPOS>MOLECULE
AUW
   52    55     1     0     0
SMALL
bcc


@<TRIPOS>ATOM
      1 C2           0.0000     0.0000     0.0000 ca         1 AUW      -0.058300
      2 C1          -0.7550     0.0060    -1.3030 c3         1 AUW       0.020900
      3 C23          2.4870    -1.2080    -1.8900 ca         1 AUW      -0.023100
      4 C8           2.1370    -0.0020    -1.2840 cp         1 AUW      -0.015000
      5 C7           1.3940     0.0000     0.0000 cp         1 AUW      -0.051000
      6 C6           2.0860     0.0000     1.2080 ca         1 AUW      -0.074000
      7 C5           1.3900     0.0010     2.4000 ca         1 AUW      -0.107000
      8 C4           0.0070     0.0020     2.3960 ca         1 AUW      -0.091000
      9 C3          -0.6860     0.0020     1.1980 ca         1 AUW      -0.100000
     10 C           -0.9090    -1.4290    -1.8100 c3         1 AUW      -0.010100
     11 C22          3.1850    -1.2030    -3.0810 ca         1 AUW      -0.088000
     12 C11          3.5320    -0.0040    -3.6780 ca         1 AUW      -0.078300
     13 C10          3.1830     1.1970    -3.0860 ca         1 AUW      -0.088000
     14 C9           2.4900     1.2040    -1.8910 ca         1 AUW      -0.023100
     15 Cl           2.0530     2.7110    -1.1480 cl         1 AUW      -0.006900
     16 C12          4.2920    -0.0050    -4.9790 c3         1 AUW       0.204100
     17 N            3.3440    -0.0080    -6.1010 n7         1 AUW      -0.589200
     18 C13          4.0520    -0.0090    -7.3880 c3         1 AUW       0.142800
     19 C14          3.0340    -0.0120    -8.5300 c3         1 AUW      -0.010700
     20 C15          3.7600    -0.0130    -9.8500 cc         1 AUW       0.200800
     21 N2           3.5750    -0.9280   -10.8410 na         1 AUW       0.269700
     22 C21          4.4190    -0.5850   -11.8780 ca         1 AUW      -0.277200
     23 C16          5.1040     0.5670   -11.4570 ca         1 AUW       0.065400
     24 N1           4.6490     0.8650   -10.2130 nd         1 AUW      -0.520100
     25 C20          4.6780    -1.1250   -13.1310 ca         1 AUW      -0.087000
     26 C19          5.6070    -0.5250   -13.9530 ca         1 AUW      -0.090000
     27 C18          6.2840     0.6130   -13.5370 ca         1 AUW      -0.119000
     28 C17          6.0410     1.1570   -12.3070 ca         1 AUW      -0.039000
     29 H1          -1.7350     0.4420    -1.1510 hc         1 AUW       0.021200
     30 H2          -0.2100     0.5900    -2.0350 hc         1 AUW       0.021200
     31 H3           3.1690    -0.0000     1.2130 ha         1 AUW       0.109000
     32 H4           1.9270     0.0010     3.3410 ha         1 AUW       0.104000
     33 H5          -0.5370     0.0030     3.3330 ha         1 AUW       0.102000
     34 H6          -1.7690     0.0020     1.2000 ha         1 AUW       0.108000
     35 H7          -0.4740    -2.1140    -1.0920 hc         1 AUW       0.008367
     36 H8          -0.4020    -1.5330    -2.7610 hc         1 AUW       0.008367
     37 H9          -1.9610    -1.6570    -1.9340 hc         1 AUW       0.008367
     38 H10          3.4610    -2.1390    -3.5500 ha         1 AUW       0.120000
     39 H11          3.4570     2.1320    -3.5580 ha         1 AUW       0.120000
     40 H12          4.9140     0.8810    -5.0340 h1         1 AUW       0.013700
     41 H13          4.9170    -0.8880    -5.0310 h1         1 AUW       0.013700
     42 H14          2.7570     0.8010    -6.0440 hn         1 AUW       0.256800
     43 H16          4.6730     0.8750    -7.4600 h1         1 AUW       0.020200
     44 H17          4.6740    -0.8940    -7.4570 h1         1 AUW       0.020200
     45 H18          2.4130    -0.8970    -8.4590 hc         1 AUW       0.024200
     46 H19          2.4110     0.8720    -8.4610 hc         1 AUW       0.024200
     47 H20          2.8570    -1.6240   -10.8720 hn         1 AUW       0.127700
     48 H22          4.1520    -2.0130   -13.4610 ha         1 AUW       0.100000
     49 H23          5.8110    -0.9440   -14.9310 ha         1 AUW       0.103000
     50 H24          7.0120     1.0750   -14.1930 ha         1 AUW       0.104000
     51 H25          6.5750     2.0460   -11.9920 ha         1 AUW       0.109000
     52 Cl1          2.0540    -2.7140    -1.1420 cl         1 AUW      -0.006900
@<TRIPOS>BOND
     1     1     2 1   
     2     1     5 ar  
     3     1     9 ar  
     4     2    10 1   
     5     2    29 1   
     6     2    30 1   
     7     3     4 ar  
     8     3    11 ar  
     9     3    52 1   
    10     4     5 1   
    11     4    14 ar  
    12     5     6 ar  
    13     6     7 ar  
    14     6    31 1   
    15     7     8 ar  
    16     7    32 1   
    17     8     9 ar  
    18     8    33 1   
    19     9    34 1   
    20    10    35 1   
    21    10    36 1   
    22    10    37 1   
    23    11    12 ar  
    24    11    38 1   
    25    12    13 ar  
    26    12    16 1   
    27    13    14 ar  
    28    13    39 1   
    29    14    15 1   
    30    16    17 1   
    31    16    40 1   
    32    16    41 1   
    33    17    18 1   
    34    17    42 1   
    35    18    19 1   
    36    18    43 1   
    37    18    44 1   
    38    19    20 1   
    39    19    45 1   
    40    19    46 1   
    41    20    21 1   
    42    20    24 2   
    43    21    22 1   
    44    21    47 1   
    45    22    23 ar  
    46    22    25 ar  
    47    23    24 1   
    48    23    28 ar  
    49    25    26 ar  
    50    25    48 1   
    51    26    27 ar  
    52    26    49 1   
    53    27    28 ar  
    54    27    50 1   
    55    28    51 1   
@<TRIPOS>SUBSTRUCTURE
     1 AUW         1 TEMP              0 ****  ****    0 ROOT
