@<TRIPOS>MOLECULE
molecule
   54    55     1     0     0
SMALL
bcc


@<TRIPOS>ATOM
      1 C            0.0000     0.0000     0.0000 c          1 AUX       0.871600
      2 N            1.9970     1.2000    -0.6930 n7         1 AUX      -0.830200
      3 O           -0.6040     0.9060    -0.5230 o          1 AUX      -0.841800
      4 CA           1.5070     0.0000     0.0000 c3         1 AUX       0.041500
      5 CB           2.0180     0.0000     1.4420 c3         1 AUX       0.184100
      6 CE           5.5390     0.3730     2.8930 c2         1 AUX      -0.099200
      7 CH           7.5240     1.6050     3.6060 c3         1 AUX      -0.031200
      8 CN           2.0590     0.9800    -2.1440 c3         1 AUX       0.157100
      9 CZ           6.0370     1.3580     3.5990 c2         1 AUX      -0.247200
     10 CAA          7.8020     3.0520     3.1930 c3         1 AUX      -0.102400
     11 CAB         10.1120     6.2570     1.1230 ca         1 AUX      -0.182000
     12 CAC         10.0880     7.2900     2.0180 ca         1 AUX       0.014000
     13 CAD          9.8510     4.9580     1.5540 ca         1 AUX       0.016700
     14 CAE          9.4650     7.6790     5.6300 ca         1 AUX      -0.102000
     15 CAF          9.2120     6.3580     5.9950 ca         1 AUX      -0.045000
     16 CAG          9.7530     8.0030     4.3400 ca         1 AUX      -0.081000
     17 CAH          9.2450     5.3560     5.0750 ca         1 AUX      -0.152000
     18 CAI          9.3120     3.3030     3.2010 c3         1 AUX      -0.020700
     19 CAJ          9.7950     6.9950     3.3630 ca         1 AUX      -0.071000
     20 CAK          9.5380     5.6520     3.7330 ca         1 AUX       0.008700
     21 NAL          9.5780     4.6890     2.8070 na         1 AUX       0.070900
     22 OG1          1.4480     1.1030     2.1490 oh         1 AUX      -0.611800
     23 CG2          3.5430     0.1260     1.4440 c3         1 AUX      -0.076700
     24 OXT         -0.6710    -1.0040     0.5860 o          1 AUX      -0.841800
     25 HN           1.3880     1.9700    -0.4980 hn         1 AUX       0.378800
     26 HA           1.8680    -0.8840    -0.5110 h1         1 AUX       0.053700
     27 HB           1.7320    -0.9260     1.9260 h1         1 AUX       0.047700
     28 HE           6.1960    -0.2640     2.3130 ha         1 AUX       0.120000
     29 HH           7.9140     1.4310     4.6010 hc         1 AUX       0.044700
     30 HHA          8.0050     0.9310     2.9070 hc         1 AUX       0.044700
     31 HNA          1.5490     1.7890    -2.6540 h1         1 AUX       0.016033
     32 HNB          3.0940     0.9500    -2.4600 h1         1 AUX       0.016033
     33 HNC          1.5790     0.0400    -2.3880 h1         1 AUX       0.016033
     34 HZ           5.3800     1.9950     4.1780 ha         1 AUX       0.135000
     35 HAA          7.3200     3.7250     3.8920 hc         1 AUX       0.068700
     36 HAAA         7.4120     3.2250     2.1980 hc         1 AUX       0.068700
     37 HAD          9.8730     4.1490     0.8330 h4         1 AUX       0.203000
     38 HAE          9.4330     8.4580     6.3830 ha         1 AUX       0.165000
     39 HAF          8.9860     6.1250     7.0290 ha         1 AUX       0.167000
     40 HAG          9.9480     9.0340     4.0670 ha         1 AUX       0.165000
     41 HAH          9.0460     4.3350     5.3760 ha         1 AUX       0.168000
     42 HAI          9.7020     3.1290     4.1960 h1         1 AUX       0.092700
     43 HAIA         9.7930     2.6300     2.5010 h1         1 AUX       0.092700
     44 HOG1         0.8820     0.7810     2.8310 ho         1 AUX       0.402000
     45 HG2          3.8290     1.0520     0.9590 hc         1 AUX       0.076700
     46 CD1          4.1530    -1.0560     0.6870 c3         1 AUX      -0.088100
     47 CD2          4.0530     0.1270     2.8860 c3         1 AUX      -0.058200
     48 HAB         10.3350     6.4490     0.0800 ha         1 AUX       0.189000
     49 HD1          4.4770    -0.7280    -0.2940 hc         1 AUX       0.030700
     50 HD1A         3.4110    -1.8380     0.5800 hc         1 AUX       0.030700
     51 HD1B         5.0030    -1.4380     1.2390 hc         1 AUX       0.030700
     52 HD2          3.8440    -0.8330     3.3430 hc         1 AUX       0.056200
     53 HD2A         3.5550     0.9090     3.4450 hc         1 AUX       0.056200
     54 HAC         10.2890     8.3060     1.7020 ha         1 AUX       0.179000
@<TRIPOS>BOND
     1     1     3 1
     2     1     4 1
     3     2     4 1
     4     2     8 1
     5     4     5 1
     6     5    22 1
     7     5    23 1
     8     6     9 2
     9     6    47 1
    10     7     9 1
    11     7    10 1
    12    10    18 1
    13    11    12 ar
    14    11    13 ar
    15    12    19 ar
    16    13    21 1
    17    14    15 ar
    18    14    16 ar
    19    15    17 ar
    20    16    19 ar
    21    17    20 ar
    22    18    21 1
    23    19    20 ar
    24    20    21 2
    25    46    23 1
    26    47    23 1
    27     1    24 1
    28     2    25 1
    29     4    26 1
    30     5    27 1
    31     6    28 1
    32     7    29 1
    33     7    30 1
    34     8    31 1
    35     8    32 1
    36     8    33 1
    37     9    34 1
    38    10    35 1
    39    10    36 1
    40    11    48 1
    41    12    54 1
    42    13    37 1
    43    14    38 1
    44    15    39 1
    45    16    40 1
    46    17    41 1
    47    18    42 1
    48    18    43 1
    49    46    49 1
    50    46    50 1
    51    46    51 1
    52    47    52 1
    53    47    53 1
    54    22    44 1
    55    23    45 1
@<TRIPOS>SUBSTRUCTURE
     1 AUX         1 TEMP              0 ****  ****    0 ROOT
