@<TRIPOS>MOLECULE
AUX
   54    57     1     0     0
SMALL
bcc


@<TRIPOS>ATOM
      1 C            0.0000     0.0000     0.0000 c2         1 AUX       0.391000
      2 N            1.9970     1.2000    -0.6930 n7         1 AUX      -0.107000
      3 O           -0.6040     0.9060    -0.5230 o          1 AUX      -0.614500
      4 CA           1.5070     0.0000     0.0000 c3         1 AUX      -0.179000
      5 CB           2.0180     0.0000     1.4420 c3         1 AUX       0.109000
      6 CE           5.5390     0.3730     2.8930 c2         1 AUX      -0.138000
      7 CH           7.5240     1.6050     3.6060 DU         1 AUX       0.013000
      8 CN           2.0590     0.9800    -2.1440 c3         1 AUX      -0.089000
      9 CZ           6.0370     1.3580     3.5990 c2         1 AUX      -0.115000
     10 CAA          7.8020     3.0520     3.1930 c3         1 AUX      -0.156000
     11 CAB         10.1120     6.2570     1.1230 c2         1 AUX      -0.106000
     12 CAC         10.0880     7.2900     2.0180 c2         1 AUX       0.018000
     13 CAD          9.8510     4.9580     1.5540 c2         1 AUX      -0.176000
     14 CAE          9.4650     7.6790     5.6300 ca         1 AUX      -0.051000
     15 CAF          9.2120     6.3580     5.9950 ca         1 AUX      -0.016000
     16 CAG          9.7530     8.0030     4.3400 ca         1 AUX      -0.059000
     17 CAH          9.2450     5.3560     5.0750 ca         1 AUX      -0.119000
     18 CAI          9.3120     3.3030     3.2010 c3         1 AUX      -0.205000
     19 CAJ          9.7950     6.9950     3.3630 ca         1 AUX      -0.033000
     20 CAK          9.5380     5.6520     3.7330 ca         1 AUX      -0.187000
     21 NAL          9.5780     4.6890     2.8070 na         1 AUX       0.599000
     22 OG1          1.4480     1.1030     2.1490 oh         1 AUX      -0.304000
     23 CG2          3.5430     0.1260     1.4440 c3         1 AUX      -0.171000
     24 OXT         -0.6710    -1.0040     0.5860 o          1 AUX      -0.614500
     25 HN           1.3880     1.9700    -0.4980 hn         1 AUX       0.078000
     26 HA           1.8680    -0.8840    -0.5110 h1         1 AUX       0.079000
     27 HB           1.7320    -0.9260     1.9260 h1         1 AUX       0.093000
     28 HE           4.9970    -0.1180     3.6910 DU         1 AUX       0.067000
     29 HH           8.0050     0.9310     2.9070 ha         1 AUX       0.052000
     30 HHA          7.9140     1.4310     4.6010 ha         1 AUX       0.052000
     31 HNA          1.6580     1.8460    -2.6580 h1         1 AUX       0.029333
     32 HNB          1.4750     0.1050    -2.4020 h1         1 AUX       0.029333
     33 HNC          3.0890     0.8280    -2.4420 h1         1 AUX       0.029333
     34 HZ           6.7510     0.7780     4.1710 DU         1 AUX      -0.012000
     35 HAA          7.4120     3.2250     2.1980 hc         1 AUX       0.080500
     36 HAAA         7.3200     3.7250     3.8920 hc         1 AUX       0.080500
     37 HAD          9.8730     4.1490     0.8330 h4         1 AUX       0.168000
     38 HAE          9.4330     8.4580     6.3830 ha         1 AUX       0.128000
     39 HAF          8.9860     6.1250     7.0290 ha         1 AUX       0.128000
     40 HAG          9.9480     9.0340     4.0670 ha         1 AUX       0.131000
     41 HAH          9.0460     4.3350     5.3760 ha         1 AUX       0.142000
     42 HAI          9.7020     3.1290     4.1960 h1         1 AUX       0.106500
     43 HAIA         9.7930     2.6300     2.5010 h1         1 AUX       0.106500
     44 HOG1         1.9620     1.8780     1.9910 ho         1 AUX       0.170000
     45 HG2          3.8290     1.0520     0.9590 hc         1 AUX       0.093000
     46 CD1          4.1530    -1.0560     0.6870 c3         1 AUX      -0.107000
     47 CD2          4.0530     0.1270     2.8860 DU         1 AUX       0.019000
     48 HAB         10.3350     6.4490     0.0800 ha         1 AUX       0.149000
     49 HD1          3.4360    -1.8660     0.6430 hc         1 AUX       0.043667
     50 HD1A         5.0460    -1.3910     1.2010 hc         1 AUX       0.043667
     51 HD1B         4.4100    -0.7470    -0.3190 hc         1 AUX       0.043667
     52 HD2          3.8440    -0.8330     3.3430 ha         1 AUX       0.074000
     53 HD2A         3.5550     0.9090     3.4450 ha         1 AUX       0.074000
     54 HAC         10.2890     8.3060     1.7020 ha         1 AUX       0.139000
@<TRIPOS>BOND
     1     1     3 1   
     2     1     4 1   
     3     1    24 1   
     4     2     4 1   
     5     2     8 1   
     6     2    25 1   
     7     4     5 1   
     8     4    26 1   
     9     5    22 1   
    10     5    23 1   
    11     5    27 1   
    12     6     9 1   
    13     6    28 1   
    14     6    47 1   
    15     7     9 1   
    16     7    10 1   
    17     7    29 1   
    18     7    30 1   
    19     7    34 1   
    20     8    31 1   
    21     8    32 1   
    22     8    33 1   
    23     9    34 1   
    24    10    18 1   
    25    10    35 1   
    26    10    36 1   
    27    11    12 1   
    28    11    13 1   
    29    11    48 1   
    30    12    19 1   
    31    12    54 1   
    32    13    21 1   
    33    13    37 1   
    34    14    15 1   
    35    14    16 1   
    36    14    38 1   
    37    15    17 1   
    38    15    39 1   
    39    16    19 1   
    40    16    40 1   
    41    17    20 1   
    42    17    41 1   
    43    18    21 1   
    44    18    42 1   
    45    18    43 1   
    46    19    20 1   
    47    20    21 1   
    48    22    44 1   
    49    23    45 1   
    50    23    46 1   
    51    23    47 1   
    52    28    47 1   
    53    46    49 1   
    54    46    50 1   
    55    46    51 1   
    56    47    52 1   
    57    47    53 1   
@<TRIPOS>SUBSTRUCTURE
     1 AUX         1 TEMP              0 ****  ****    0 ROOT
