@<TRIPOS>MOLECULE
molecule
   28    29     1     0     0
SMALL
bcc


@<TRIPOS>ATOM
      1 S            0.0000     0.0000     0.0000 ss         1 AUY      -0.162800
      2 C1           1.2180    -0.0000     2.2270 cc         1 AUY      -0.145000
      3 N1          -4.6990     0.8340     4.7960 nb         1 AUY      -0.684000
      4 O1          -2.5760     5.3330     4.0540 o          1 AUY      -0.836300
      5 C01          3.6740    -0.0020     1.5950 c3         1 AUY      -0.027800
      6 N01         -1.6790     1.3840     2.8800 nu         1 AUY      -0.815600
      7 O01         -1.3710     3.9190     2.8400 o          1 AUY      -0.836300
      8 C02          2.2060     0.0000     1.2570 cc         1 AUY      -0.110300
      9 C03          1.7590     0.0000     0.0000 cd         1 AUY      -0.088100
     10 C04         -0.0300     0.0010     1.7580 cd         1 AUY      -0.015400
     11 C05         -1.2760     0.0020     2.6060 c3         1 AUY       0.308100
     12 C06         -2.8080     1.6390     3.6470 ca         1 AUY       0.107300
     13 C07         -3.6290     0.5960     4.0670 ca         1 AUY       0.286200
     14 C08         -5.0440     2.0540     5.1600 ca         1 AUY       0.308200
     15 C09         -4.2910     3.1490     4.7910 ca         1 AUY      -0.169300
     16 C10         -3.1420     2.9540     4.0150 ca         1 AUY      -0.158600
     17 C11         -2.3050     4.0950     3.5960 c          1 AUY       0.899200
     18 H1           1.4430    -0.0000     3.2860 ha         1 AUY       0.152000
     19 H01          3.8540    -0.6780     2.4220 hc         1 AUY       0.037700
     20 H01A         3.9820     0.9990     1.8740 hc         1 AUY       0.037700
     21 H01B         4.2430    -0.3270     0.7320 hc         1 AUY       0.037700
     22 HN01        -1.1590     2.1430     2.4870 hn         1 AUY       0.502800
     23 H03          2.3840    -0.0000    -0.8850 h4         1 AUY       0.160000
     24 H05         -2.0720    -0.5080     2.0780 h1         1 AUY       0.034700
     25 H05A        -1.0780    -0.5080     3.5410 h1         1 AUY       0.034700
     26 H07         -3.3850    -0.4230     3.7920 h4         1 AUY      -0.004900
     27 H08         -5.9340     2.1980     5.7610 h4         1 AUY      -0.005900
     28 H09         -4.5850     4.1460     5.0960 ha         1 AUY       0.154000
@<TRIPOS>BOND
     1     9     1 1
     2    10     1 1
     3     8     2 1
     4     2    10 2
     5     2    18 1
     6    13     3 ar
     7     3    14 ar
     8    17     4 1
     9     5     8 1
    10     5    19 1
    11     5    20 1
    12     5    21 1
    13    11     6 1
    14     6    12 1
    15     6    22 1
    16     7    17 1
    17     8     9 2
    18     9    23 1
    19    10    11 1
    20    11    24 1
    21    11    25 1
    22    12    13 ar
    23    12    16 ar
    24    13    26 1
    25    15    14 ar
    26    14    27 1
    27    16    15 ar
    28    15    28 1
    29    17    16 1
@<TRIPOS>SUBSTRUCTURE
     1 AUY         1 TEMP              0 ****  ****    0 ROOT
