@<TRIPOS>MOLECULE
molecule
   56    59     1     0     0
SMALL
bcc


@<TRIPOS>ATOM
      1 Br1          0.0000     0.0000     0.0000 br         1 AV1       0.100700
      2 O3          -2.6030     4.1380    -3.4690 os         1 AV1      -0.714800
      3 PA          -2.6190     2.5380    -3.6520 p5         1 AV1       1.435800
      4 PN          -3.6840     5.2160    -2.9590 p5         1 AV1       1.435800
      5 C1'          2.4410    -0.0010    -2.2750 c3         1 AV1       0.241800
      6 N1A          6.1950     0.0000     1.3150 nb         1 AV1      -0.851000
      7 O1A         -3.3680     2.1630    -5.0260 o          1 AV1      -0.835500
      8 C1D         -1.9990    10.7910    -3.0540 c3         1 AV1       0.107400
      9 O1N         -4.3420     4.7120    -1.7320 o          1 AV1      -0.836500
     10 C2'          1.9520    -1.4010    -2.7230 c3         1 AV1       0.083100
     11 O2'          3.0550    -2.2360    -3.0800 oh         1 AV1      -0.575800
     12 C2A          6.3100     0.0000     0.0000 ca         1 AV1       0.722900
     13 O2A         -3.3340     1.9180    -2.5150 o          1 AV1      -0.835500
     14 C2D         -3.1740    11.2450    -2.1510 c3         1 AV1       0.088100
     15 O2D         -2.8490    12.4520    -1.4590 oh         1 AV1      -0.589800
     16 O2N         -4.7910     5.4490    -4.1050 o          1 AV1      -0.836500
     17 C3'          1.0900    -1.0640    -3.9640 c3         1 AV1       0.091100
     18 O3'          1.8440    -1.2560    -5.1620 oh         1 AV1      -0.584800
     19 N3A          5.2660     0.0000    -0.8020 nb         1 AV1      -0.775000
     20 C3D         -3.3040    10.0590    -1.1660 c3         1 AV1       0.107100
     21 O3D         -2.6250    10.3500     0.0590 oh         1 AV1      -0.587800
     22 C4'          0.7350     0.4250    -3.7830 c3         1 AV1       0.114100
     23 O4'          1.3040     0.8520    -2.5340 os         1 AV1      -0.370600
     24 C4A          4.0330     0.0000    -0.3070 ca         1 AV1       0.483800
     25 C4D         -2.6230     8.8860    -1.8940 c3         1 AV1       0.110100
     26 O4D         -2.2040     9.3680    -3.1830 os         1 AV1      -0.372600
     27 C5'         -0.7840     0.5970    -3.7490 c3         1 AV1       0.236400
     28 O5'         -1.1050     1.9880    -3.6980 os         1 AV1      -0.593200
     29 C5A          3.8560    -0.0010     1.0880 ca         1 AV1      -0.207200
     30 C5D         -3.6140     7.7340    -2.0670 c3         1 AV1       0.236400
     31 O5D         -2.9430     6.6090    -2.6370 os         1 AV1      -0.597200
     32 C6A          5.0010    -0.0000     1.9000 ca         1 AV1       0.780200
     33 N6A          4.8900    -0.0010     3.2810 nv         1 AV1      -0.994500
     34 N7A          2.5210    -0.0010     1.3210 nc         1 AV1      -0.581100
     35 C8A          1.8820    -0.0000     0.1860 cd         1 AV1       0.387800
     36 N9A          2.7720    -0.0010    -0.8480 na         1 AV1      -0.220000
     37 H1'          3.2910     0.3120    -2.8700 h2         1 AV1       0.110700
     38 H2'          1.3460    -1.8600    -1.9500 h1         1 AV1       0.057700
     39 HO2'         2.9090    -3.1080    -2.7500 ho         1 AV1       0.392000
     40 H2A          7.3020     0.0000    -0.4360 h5         1 AV1       0.050100
     41 H2D         -4.0810    11.3600    -2.7330 h1         1 AV1       0.045700
     42 HO2D        -3.3630    13.1620    -1.8060 ho         1 AV1       0.382000
     43 H3'          0.1910    -1.6680    -3.9740 h1         1 AV1       0.054700
     44 HO3'         1.3640    -1.8170    -5.7490 ho         1 AV1       0.398000
     45 H3D         -4.3480     9.8340    -0.9830 h1         1 AV1       0.047700
     46 HO3D        -3.2270    10.2650     0.7800 ho         1 AV1       0.393000
     47 H4'          1.1580     1.0040    -4.5950 h1         1 AV1       0.083700
     48 H4D         -1.7600     8.5540    -1.3290 h1         1 AV1       0.074700
     49 H5'         -1.1840     0.1020    -2.8720 h1         1 AV1       0.032200
     50 H5'A        -1.2170     0.1590    -4.6400 h1         1 AV1       0.032200
     51 H5D         -4.4180     8.0450    -2.7230 h1         1 AV1       0.030200
     52 H5DA        -4.0210     7.4600    -1.1010 h1         1 AV1       0.030200
     53 HN6A         3.9860    -0.0020     3.7100 hn         1 AV1       0.444300
     54 HN6B         5.7140    -0.0010     3.8490 hn         1 AV1       0.444300
     55 H1D         -2.0560    11.2720    -4.0230 h1         1 AV1       0.045700
     56 H1DA        -1.0500    10.9960    -2.5730 h1         1 AV1       0.045700
@<TRIPOS>BOND
     1     1    35 1
     2     2     3 1
     3     2     4 1
     4     3     7 1
     5     3    13 1
     6     3    28 1
     7     4     9 1
     8     4    16 1
     9     4    31 1
    10     5    10 1
    11     5    23 1
    12     5    36 1
    13     6    12 ar
    14     6    32 ar
    15     8    14 1
    16     8    26 1
    17    10    11 1
    18    10    17 1
    19    12    19 ar
    20    14    15 1
    21    14    20 1
    22    17    18 1
    23    17    22 1
    24    19    24 ar
    25    20    21 1
    26    20    25 1
    27    22    23 1
    28    22    27 1
    29    24    29 ar
    30    24    36 1
    31    25    26 1
    32    25    30 1
    33    27    28 1
    34    29    32 ar
    35    29    34 1
    36    30    31 1
    37    32    33 1
    38    34    35 2
    39    35    36 1
    40     5    37 1
    41     8    55 1
    42     8    56 1
    43    10    38 1
    44    11    39 1
    45    12    40 1
    46    14    41 1
    47    15    42 1
    48    17    43 1
    49    18    44 1
    50    20    45 1
    51    21    46 1
    52    22    47 1
    53    25    48 1
    54    27    49 1
    55    27    50 1
    56    30    51 1
    57    30    52 1
    58    33    53 1
    59    33    54 1
@<TRIPOS>SUBSTRUCTURE
     1 AV1         1 TEMP              0 ****  ****    0 ROOT
