@<TRIPOS>MOLECULE
AV1
   56    59     1     0     0
SMALL
bcc


@<TRIPOS>ATOM
      1 Br1          0.0000     0.0000     0.0000 br         1 AV1       0.094700
      2 O3          -2.6030     4.1380    -3.4690 os         1 AV1      -0.485800
      3 PA          -2.6190     2.5380    -3.6520 p5         1 AV1       0.951800
      4 PN          -3.6840     5.2160    -2.9590 p5         1 AV1       0.953800
      5 C1'          2.4410    -0.0010    -2.2750 c3         1 AV1       0.120800
      6 N1A          6.1950     0.0000     1.3150 nb         1 AV1      -0.763000
      7 O1A         -3.3680     2.1630    -5.0260 o          1 AV1      -0.674500
      8 C1D         -1.9990    10.7910    -3.0540 c3         1 AV1       0.176400
      9 O1N         -4.3420     4.7120    -1.7320 o          1 AV1      -0.674500
     10 C2'          1.9520    -1.4010    -2.7230 c3         1 AV1       0.118100
     11 O2'          3.0550    -2.2360    -3.0800 oh         1 AV1      -0.556800
     12 C2A          6.3100     0.0000     0.0000 ca         1 AV1       0.663900
     13 O2A         -3.3340     1.9180    -2.5150 o          1 AV1      -0.674500
     14 C2D         -3.1740    11.2450    -2.1510 c3         1 AV1       0.126100
     15 O2D         -2.8490    12.4520    -1.4590 oh         1 AV1      -0.568800
     16 O2N         -4.7910     5.4490    -4.1050 o          1 AV1      -0.674500
     17 C3'          1.0900    -1.0640    -3.9640 c3         1 AV1       0.132100
     18 O3'          1.8440    -1.2560    -5.1620 oh         1 AV1      -0.566800
     19 N3A          5.2660     0.0000    -0.8020 nb         1 AV1      -0.656000
     20 C3D         -3.3040    10.0590    -1.1660 c3         1 AV1       0.142100
     21 O3D         -2.6250    10.3500     0.0590 oh         1 AV1      -0.571800
     22 C4'          0.7350     0.4250    -3.7830 c3         1 AV1       0.134100
     23 O4'          1.3040     0.8520    -2.5340 os         1 AV1      -0.354600
     24 C4A          4.0330     0.0000    -0.3070 ca         1 AV1       0.263800
     25 C4D         -2.6230     8.8860    -1.8940 c3         1 AV1       0.128100
     26 O4D         -2.2040     9.3680    -3.1830 os         1 AV1      -0.361600
     27 C5'         -0.7840     0.5970    -3.7490 c3         1 AV1       0.309400
     28 O5'         -1.1050     1.9880    -3.6980 os         1 AV1      -0.495200
     29 C5A          3.8560    -0.0010     1.0880 ca         1 AV1      -0.239200
     30 C5D         -3.6140     7.7340    -2.0670 c3         1 AV1       0.310400
     31 O5D         -2.9430     6.6090    -2.6370 os         1 AV1      -0.498200
     32 C6A          5.0010    -0.0000     1.9000 ca         1 AV1       0.585200
     33 N6A          4.8900    -0.0010     3.2810 nv         1 AV1      -0.504500
     34 N7A          2.5210    -0.0010     1.3210 nc         1 AV1      -0.495100
     35 C8A          1.8820    -0.0000     0.1860 cd         1 AV1       0.178800
     36 N9A          2.7720    -0.0010    -0.8480 na         1 AV1       0.267000
     37 H1'          3.2910     0.3120    -2.8700 h2         1 AV1       0.067700
     38 H2'          1.3460    -1.8600    -1.9500 h1         1 AV1       0.021700
     39 HO2'         2.9090    -3.1080    -2.7500 ho         1 AV1       0.375000
     40 H2A          7.3020     0.0000    -0.4360 h5         1 AV1      -0.015900
     41 H2D         -4.0810    11.3600    -2.7330 h1         1 AV1       0.009700
     42 HO2D        -3.3630    13.1620    -1.8060 ho         1 AV1       0.365000
     43 H3'          0.1910    -1.6680    -3.9740 h1         1 AV1       0.018700
     44 HO3'         1.3640    -1.8170    -5.7490 ho         1 AV1       0.381000
     45 H3D         -4.3480     9.8340    -0.9830 h1         1 AV1       0.012700
     46 HO3D        -3.2270    10.2650     0.7800 ho         1 AV1       0.376000
     47 H4'          1.1580     1.0040    -4.5950 h1         1 AV1       0.043700
     48 H4D         -1.7600     8.5540    -1.3290 h1         1 AV1       0.035700
     49 H5'         -1.1840     0.1020    -2.8720 h1         1 AV1      -0.020300
     50 H5'A        -1.2170     0.1590    -4.6400 h1         1 AV1      -0.020300
     51 H5D         -4.4180     8.0450    -2.7230 h1         1 AV1      -0.020800
     52 H5DA        -4.0210     7.4600    -1.1010 h1         1 AV1      -0.020800
     53 HN6A         3.9860    -0.0020     3.7100 hn         1 AV1       0.271300
     54 HN6B         5.7140    -0.0010     3.8490 hn         1 AV1       0.271300
     55 H1D         -2.0560    11.2720    -4.0230 h1         1 AV1       0.002700
     56 H1DA        -1.0500    10.9960    -2.5730 h1         1 AV1       0.002700
@<TRIPOS>BOND
     1     1    35 1   
     2     2     3 1   
     3     2     4 1   
     4     3     7 1   
     5     3    13 1   
     6     3    28 1   
     7     4     9 1   
     8     4    16 1   
     9     4    31 1   
    10     5    10 1   
    11     5    23 1   
    12     5    36 1   
    13     5    37 1   
    14     6    12 ar  
    15     6    32 ar  
    16     8    14 1   
    17     8    26 1   
    18     8    55 1   
    19     8    56 1   
    20    10    11 1   
    21    10    17 1   
    22    10    38 1   
    23    11    39 1   
    24    12    19 ar  
    25    12    40 1   
    26    14    15 1   
    27    14    20 1   
    28    14    41 1   
    29    15    42 1   
    30    17    18 1   
    31    17    22 1   
    32    17    43 1   
    33    18    44 1   
    34    19    24 ar  
    35    20    21 1   
    36    20    25 1   
    37    20    45 1   
    38    21    46 1   
    39    22    23 1   
    40    22    27 1   
    41    22    47 1   
    42    24    29 ar  
    43    24    36 1   
    44    25    26 1   
    45    25    30 1   
    46    25    48 1   
    47    27    28 1   
    48    27    49 1   
    49    27    50 1   
    50    29    32 ar  
    51    29    34 1   
    52    30    31 1   
    53    30    51 1   
    54    30    52 1   
    55    32    33 1   
    56    33    53 1   
    57    33    54 1   
    58    34    35 2   
    59    35    36 1   
@<TRIPOS>SUBSTRUCTURE
     1 AV1         1 TEMP              0 ****  ****    0 ROOT
