@<TRIPOS>MOLECULE
molecule
   32    33     1     0     0
SMALL
bcc


@<TRIPOS>ATOM
      1 C10          0.0000     0.0000     0.0000 c          1 AV4       0.882200
      2 C11          2.4910     0.0000     0.0000 ca         1 AV4      -0.097000
      3 C12          3.6980     0.0000     0.6700 ca         1 AV4      -0.181000
      4 C13          3.7270    -0.0070     2.0510 ca         1 AV4      -0.145000
      5 C14          3.3340    -0.0170     5.2530 ca         1 AV4      -0.209000
      6 C2           3.2340    -0.0160     6.6360 ca         1 AV4       0.191600
      7 C4           0.8380    -0.0160     6.4720 ca         1 AV4      -0.091000
      8 C5           0.9280    -0.0230     5.0930 ca         1 AV4      -0.162000
      9 C7           2.5370    -0.0140     2.7790 cp         1 AV4      -0.030000
     10 C6           2.1770    -0.0170     4.4770 cp         1 AV4       0.027000
     11 C8           1.3170    -0.0130     2.1110 ca         1 AV4      -0.121000
     12 C            4.2890    -0.1410     8.8760 c3         1 AV4       0.237600
     13 C1           5.7050     0.1080     6.7850 c3         1 AV4       0.237600
     14 C3           1.9840    -0.0160     7.2430 ca         1 AV4      -0.225000
     15 C9           1.2910    -0.0010     0.7160 ca         1 AV4      -0.112600
     16 O           -0.0230     0.0130    -1.3470 o          1 AV4      -0.837300
     17 O1          -1.0420    -0.0140     0.6250 o          1 AV4      -0.837300
     18 H10          2.4740     0.0010    -1.0830 ha         1 AV4       0.151000
     19 H11          4.6250     0.0060     0.1110 ha         1 AV4       0.106000
     20 H12          4.7970    -0.0150     2.2250 ha         1 AV4       0.114000
     21 H13          4.3070    -0.0150     4.7780 ha         1 AV4       0.133000
     22 H7          -0.1340    -0.0180     6.9490 ha         1 AV4       0.121000
     23 H8           0.0270    -0.0230     4.4920 ha         1 AV4       0.149000
     24 H9           0.3140    -0.0200     2.5210 ha         1 AV4       0.167000
     25 H            3.7400    -1.0410     9.1240 h1         1 AV4       0.028033
     26 H1           5.2810    -0.1920     9.3100 h1         1 AV4       0.028033
     27 H2           3.7660     0.7210     9.2720 h1         1 AV4       0.028033
     28 H4           5.8840    -0.7540     6.1540 h1         1 AV4       0.028033
     29 H3           5.7510     1.0100     6.1860 h1         1 AV4       0.028033
     30 H5           6.4600     0.1510     7.5610 h1         1 AV4       0.028033
     31 H6           1.9080    -0.0130     8.3240 ha         1 AV4       0.116000
     32 N            4.3910    -0.0160     7.4200 nh         1 AV4      -0.751000
@<TRIPOS>BOND
     1    14     7 ar
     2    14     6 ar
     3    13    32 1
     4    32     6 1
     5    32    12 1
     6     7     8 ar
     7     6     5 ar
     8    17     1 1
     9     8    10 ar
    10     5    10 ar
    11     1    16 1
    12     1    15 1
    13    10     9 1
    14    11    15 ar
    15    11     9 ar
    16    15     2 ar
    17     9     4 ar
    18     2     3 ar
    19     4     3 ar
    20     2    18 1
    21     3    19 1
    22     4    20 1
    23     5    21 1
    24     7    22 1
    25     8    23 1
    26    11    24 1
    27    12    25 1
    28    12    26 1
    29    12    27 1
    30    13    28 1
    31    13    29 1
    32    13    30 1
    33    14    31 1
@<TRIPOS>SUBSTRUCTURE
     1 AV4         1 TEMP              0 ****  ****    0 ROOT
