@<TRIPOS>MOLECULE
AV4
   32    33     1     0     0
SMALL
bcc


@<TRIPOS>ATOM
      1 C10          0.0000     0.0000     0.0000 c          1 AV4       0.974200
      2 C11          2.4910     0.0000     0.0000 ca         1 AV4      -0.069000
      3 C12          3.6980     0.0000     0.6700 ca         1 AV4      -0.167000
      4 C13          3.7270    -0.0070     2.0510 ca         1 AV4      -0.128000
      5 C14          3.3340    -0.0170     5.2530 ca         1 AV4      -0.205000
      6 C2           3.2340    -0.0160     6.6360 ca         1 AV4       0.068600
      7 C4           0.8380    -0.0160     6.4720 ca         1 AV4      -0.059000
      8 C5           0.9280    -0.0230     5.0930 ca         1 AV4      -0.144000
      9 C7           2.5370    -0.0140     2.7790 cp         1 AV4      -0.018000
     10 C6           2.1770    -0.0170     4.4770 cp         1 AV4       0.049000
     11 C8           1.3170    -0.0130     2.1110 ca         1 AV4      -0.119000
     12 C            4.2890    -0.1410     8.8760 c3         1 AV4       0.218600
     13 C1           5.7050     0.1080     6.7850 c3         1 AV4       0.218600
     14 C3           1.9840    -0.0160     7.2430 ca         1 AV4      -0.213000
     15 C9           1.2910    -0.0010     0.7160 ca         1 AV4      -0.111600
     16 O           -0.0230     0.0130    -1.3470 o          1 AV4      -0.885300
     17 O1          -1.0420    -0.0140     0.6250 o          1 AV4      -0.885300
     18 H10          2.4740     0.0010    -1.0830 ha         1 AV4       0.126000
     19 H11          4.6250     0.0060     0.1110 ha         1 AV4       0.085000
     20 H12          4.7970    -0.0150     2.2250 ha         1 AV4       0.095000
     21 H13          4.3070    -0.0150     4.7780 ha         1 AV4       0.121000
     22 H7          -0.1340    -0.0180     6.9490 ha         1 AV4       0.092000
     23 H8           0.0270    -0.0230     4.4920 ha         1 AV4       0.128000
     24 H9           0.3140    -0.0200     2.5210 ha         1 AV4       0.148000
     25 H            3.7400    -1.0410     9.1240 h1         1 AV4      -0.001467
     26 H1           5.2810    -0.1920     9.3100 h1         1 AV4      -0.001467
     27 H2           3.7660     0.7210     9.2720 h1         1 AV4      -0.001467
     28 H4           5.8840    -0.7540     6.1540 h1         1 AV4      -0.001467
     29 H3           5.7510     1.0100     6.1860 h1         1 AV4      -0.001467
     30 H5           6.4600     0.1510     7.5610 h1         1 AV4      -0.001467
     31 H6           1.9080    -0.0130     8.3240 ha         1 AV4       0.103000
     32 N            4.3910    -0.0160     7.4200 nh         1 AV4      -0.414000
@<TRIPOS>BOND
     1     1    15 1   
     2     1    16 1   
     3     1    17 1   
     4     2     3 ar  
     5     2    15 ar  
     6     2    18 1   
     7     3     4 ar  
     8     3    19 1   
     9     4     9 ar  
    10     4    20 1   
    11     5     6 ar  
    12     5    10 ar  
    13     5    21 1   
    14     6    14 ar  
    15     6    32 1   
    16     7     8 ar  
    17     7    14 ar  
    18     7    22 1   
    19     8    10 ar  
    20     8    23 1   
    21     9    10 1   
    22     9    11 ar  
    23    11    15 ar  
    24    11    24 1   
    25    12    25 1   
    26    12    26 1   
    27    12    27 1   
    28    12    32 1   
    29    13    28 1   
    30    13    29 1   
    31    13    30 1   
    32    13    32 1   
    33    14    31 1   
@<TRIPOS>SUBSTRUCTURE
     1 AV4         1 TEMP              0 ****  ****    0 ROOT
