@<TRIPOS>MOLECULE
molecule
   40    43     1     0     0
SMALL
bcc


@<TRIPOS>ATOM
      1 Cl1          0.0000     0.0000     0.0000 cl         1 AV5      -0.136400
      2 C16          1.7360     0.0000     0.0000 ca         1 AV5       0.031400
      3 C14          2.4250     0.0000     1.2010 ca         1 AV5      -0.141000
      4 C12          3.8050    -0.0000     1.2070 ca         1 AV5      -0.079000
      5 C15          2.4260    -0.0070    -1.2010 ca         1 AV5      -0.141000
      6 C13          3.8050    -0.0080    -1.2070 ca         1 AV5      -0.079000
      7 C11          4.5050    -0.0020    -0.0000 cp         1 AV5      -0.126500
      8 C10          5.9850    -0.0020    -0.0010 cp         1 AV5       0.495800
      9 N9           6.6360    -0.6610    -0.9340 nb         1 AV5      -0.674000
     10 C2           7.9700    -0.7110    -1.0030 ca         1 AV5       0.383600
     11 C4           8.6030    -1.4360    -2.0290 ca         1 AV5      -0.165300
     12 C6           9.9620    -1.4800    -2.0910 ca         1 AV5      -0.142000
     13 C5          10.7460    -0.8160    -1.1520 ca         1 AV5      -0.134000
     14 C3          10.1680    -0.1020    -0.1430 ca         1 AV5      -0.106000
     15 C1           8.7740    -0.0350    -0.0490 ca         1 AV5      -0.079300
     16 C8           6.7080     0.7380     1.0330 ca         1 AV5       0.120100
     17 N19          6.0820     1.4280     2.0000 nc         1 AV5      -0.702100
     18 C20          6.7440     2.0800     2.9110 cd         1 AV5       0.542900
     19 C22          5.9670     2.8310     3.9610 c3         1 AV5      -0.133400
     20 C7           8.1130     0.7140     1.0100 ca         1 AV5      -0.199600
     21 C17          8.8400     1.4530     2.0440 c          1 AV5       0.718100
     22 O21         10.0570     1.4710     2.0760 o          1 AV5      -0.628500
     23 N18          8.1000     2.1180     2.9650 n          1 AV5      -0.309300
     24 C23          8.7650     2.8760     4.0260 c3         1 AV5      -0.041000
     25 C24          8.9940     1.9810     5.2160 c          1 AV5       0.878600
     26 O26          9.5940     2.4640     6.3150 o          1 AV5      -0.824300
     27 O25          8.6360     0.8280     5.1820 o          1 AV5      -0.824300
     28 H1           1.8800     0.0010     2.1370 ha         1 AV5       0.137500
     29 H2           4.3430     0.0020     2.1460 ha         1 AV5       0.160500
     30 H3           1.8810    -0.0120    -2.1370 ha         1 AV5       0.137500
     31 H4           4.3440    -0.0110    -2.1470 ha         1 AV5       0.160500
     32 H5           8.0090    -1.9590    -2.7690 ha         1 AV5       0.134000
     33 H6          10.4420    -2.0410    -2.8840 ha         1 AV5       0.118000
     34 H7          11.8250    -0.8650    -1.2230 ha         1 AV5       0.124000
     35 H8          10.7870     0.4110     0.5830 ha         1 AV5       0.186000
     36 H9           4.9050     2.7160     3.7750 hc         1 AV5       0.068700
     37 H10          6.2060     2.4340     4.9400 hc         1 AV5       0.068700
     38 H11          6.2290     3.8810     3.9220 hc         1 AV5       0.068700
     39 H12          9.7170     3.2450     3.6630 h1         1 AV5       0.065200
     40 H13          8.1410     3.7120     4.3180 h1         1 AV5       0.065200
@<TRIPOS>BOND
     1     1     2 1
     2     5     2 ar
     3     5     6 ar
     4     2     3 ar
     5    19    18 1
     6     6     7 ar
     7     3     4 ar
     8    18    17 2
     9    18    23 1
    10    17    16 1
    11     7     4 ar
    12     7     8 1
    13    24    23 1
    14    24    25 1
    15    23    21 1
    16    16     8 ar
    17    16    20 ar
    18    25    27 1
    19    25    26 1
    20     8     9 ar
    21    21    20 1
    22    21    22 2
    23    20    15 ar
    24     9    10 ar
    25    10    15 ar
    26    10    11 ar
    27    15    14 ar
    28    11    12 ar
    29    14    13 ar
    30    12    13 ar
    31     3    28 1
    32     4    29 1
    33     5    30 1
    34     6    31 1
    35    11    32 1
    36    12    33 1
    37    13    34 1
    38    14    35 1
    39    19    36 1
    40    19    37 1
    41    19    38 1
    42    24    39 1
    43    24    40 1
@<TRIPOS>SUBSTRUCTURE
     1 AV5         1 TEMP              0 ****  ****    0 ROOT
