@<TRIPOS>MOLECULE
molecule
   35    38     1     0     0
SMALL
bcc


@<TRIPOS>ATOM
      1 C1           0.0000     0.0000     0.0000 ca         1 AV6      -0.101000
      2 C2           1.4110     0.0000     0.0000 ca         1 AV6       0.117600
      3 C3           2.0870     0.0000     1.1980 ca         1 AV6      -0.132500
      4 C4           1.3850    -0.0030     2.4020 ca         1 AV6      -0.109000
      5 C5           0.0230    -0.0050     2.4290 ca         1 AV6      -0.131500
      6 C6          -0.7040     0.0010     1.2250 ca         1 AV6      -0.007000
      7 C7          -2.1090     0.0020     1.2050 ca         1 AV6      -0.131500
      8 C8          -2.7720     0.0110     0.0150 ca         1 AV6      -0.109000
      9 C9          -2.0850     0.0180    -1.1980 ca         1 AV6      -0.132500
     10 C10         -0.7110     0.0050    -1.2190 ca         1 AV6       0.117600
     11 N11          0.0100     0.0040    -2.4140 nu         1 AV6      -0.752100
     12 C12          1.3790     0.5480    -2.3980 c3         1 AV6       0.492000
     13 N13          2.0810    -0.0020    -1.2250 nu         1 AV6      -0.752100
     14 C15          1.3270     2.0510    -2.3020 ca         1 AV6      -0.087300
     15 C16          2.3480     2.7380    -1.6720 ca         1 AV6      -0.123000
     16 C17          2.3030     4.1200    -1.5820 ca         1 AV6       0.080100
     17 C18          1.2260     4.8140    -2.1280 ca         1 AV6       0.097100
     18 C19          0.2060     4.1200    -2.7580 ca         1 AV6      -0.163000
     19 C20          0.2610     2.7410    -2.8490 ca         1 AV6      -0.093000
     20 O21          1.1770     6.1700    -2.0420 oh         1 AV6      -0.513100
     21 O22          3.3060     4.7960    -0.9620 oh         1 AV6      -0.508100
     22 H3           3.1700     0.0010     1.2050 ha         1 AV6       0.139000
     23 H4           1.9340    -0.0040     3.3360 ha         1 AV6       0.130500
     24 H5          -0.5000    -0.0070     3.3780 ha         1 AV6       0.133000
     25 H7          -2.6640    -0.0030     2.1350 ha         1 AV6       0.133000
     26 H8          -3.8550     0.0140     0.0110 ha         1 AV6       0.130500
     27 H9          -2.6380     0.0250    -2.1300 ha         1 AV6       0.139000
     28 H16          3.1850     2.1950    -1.2480 ha         1 AV6       0.158000
     29 H19         -0.6310     4.6580    -3.1850 ha         1 AV6       0.141000
     30 H20         -0.5380     2.2000    -3.3420 ha         1 AV6       0.152000
     31 HO21         0.5420     6.4210    -1.3920 ho         1 AV6       0.422000
     32 HO22         4.0780     4.7790    -1.5040 ho         1 AV6       0.419000
     33 HN11         0.0230    -0.9210    -2.7950 hn         1 AV6       0.378800
     34 HN13         2.3990    -0.9280    -1.4300 hn         1 AV6       0.378800
     35 H12          1.8970     0.2530    -3.3020 h2         1 AV6       0.086700
@<TRIPOS>BOND
     1     6     1 ar
     2     1     2 ar
     3     1    10 ar
     4     3     2 ar
     5     2    13 1
     6     4     3 ar
     7     3    22 1
     8     5     4 ar
     9     4    23 1
    10     5     6 ar
    11     5    24 1
    12     7     6 ar
    13     7     8 ar
    14     7    25 1
    15     8     9 ar
    16     8    26 1
    17     9    10 ar
    18     9    27 1
    19    10    11 1
    20    11    12 1
    21    13    12 1
    22    12    14 1
    23    14    15 ar
    24    14    19 ar
    25    15    16 ar
    26    15    28 1
    27    16    21 1
    28    16    17 ar
    29    18    17 ar
    30    17    20 1
    31    19    18 ar
    32    18    29 1
    33    19    30 1
    34    20    31 1
    35    21    32 1
    36    11    33 1
    37    13    34 1
    38    12    35 1
@<TRIPOS>SUBSTRUCTURE
     1 AV6         1 TEMP              0 ****  ****    0 ROOT
