@<TRIPOS>MOLECULE
molecule
   31    32     1     0     0
SMALL
bcc


@<TRIPOS>ATOM
      1 C10          0.0000     0.0000     0.0000 ca         1 AV7      -0.119000
      2 C13          5.6410    -0.0020     2.4200 ca         1 AV7      -0.167000
      3 C11          1.3810     0.0000     0.0000 ca         1 AV7      -0.135000
      4 C12          4.2590    -0.0010     2.4160 ca         1 AV7      -0.139000
      5 N           -0.7150    -0.0000     3.6100 ns         1 AV7      -0.475100
      6 O            5.8050     0.0010    -2.3170 o          1 AV7      -0.835800
      7 C1           5.6540    -0.0010     0.0140 ca         1 AV7      -0.105600
      8 C14          6.3410    -0.0010     1.2310 ca         1 AV7      -0.084000
      9 C2           4.2600     0.0000     0.0050 ca         1 AV7      -0.086000
     10 C3           3.5620    -0.0010     1.2070 cp         1 AV7      -0.086000
     11 C4           2.0780     0.0000     1.2060 cp         1 AV7       0.014000
     12 C5           1.3800    -0.0010     2.4100 ca         1 AV7      -0.165000
     13 C6          -0.0070     0.0000     2.4020 ca         1 AV7       0.037600
     14 C7          -1.8800    -0.6700     3.7090 c          1 AV7       0.654100
     15 C8          -2.5890    -0.7570     5.0350 c3         1 AV7      -0.173100
     16 C9          -0.6950    -0.0000     1.1940 ca         1 AV7      -0.146000
     17 O1          -2.3570    -1.2040     2.7300 o          1 AV7      -0.599100
     18 O2           7.7500    -0.0010    -1.2480 o          1 AV7      -0.835800
     19 H8          -0.5400    -0.0000    -0.9390 ha         1 AV7       0.126000
     20 H11          6.1770    -0.0020     3.3610 ha         1 AV7       0.106000
     21 H9           1.9220     0.0000    -0.9380 ha         1 AV7       0.151000
     22 H10          3.7160    -0.0010     3.3530 ha         1 AV7       0.103000
     23 H3          -0.3630     0.5100     4.3960 hn         1 AV7       0.317500
     24 H12          7.4240    -0.0020     1.2400 ha         1 AV7       0.155000
     25 H1           3.7230     0.0000    -0.9360 ha         1 AV7       0.149000
     26 H2           1.9180    -0.0010     3.3510 ha         1 AV7       0.130000
     27 H5          -3.5920    -1.1390     4.8850 hc         1 AV7       0.057367
     28 H4          -2.0440    -1.4230     5.6930 hc         1 AV7       0.057367
     29 H6          -2.6410     0.2290     5.4820 hc         1 AV7       0.057367
     30 H7          -1.7790    -0.0000     1.1890 ha         1 AV7       0.151000
     31 C            6.4040    -0.0000    -1.2600 c          1 AV7       0.883200
@<TRIPOS>BOND
     1     2     8 ar
     2     2     4 ar
     3     8     7 ar
     4     6    31 1
     5     4    10 ar
     6     7    31 1
     7     7     9 ar
     8    31    18 1
     9    10     9 ar
    10    10    11 1
    11    11     3 ar
    12    11    12 ar
    13     3     1 ar
    14    12    13 ar
    15     1    16 ar
    16    13    16 ar
    17    13     5 1
    18     5    14 1
    19    15    14 1
    20    14    17 2
    21     1    19 1
    22     2    20 1
    23     3    21 1
    24     4    22 1
    25     5    23 1
    26     8    24 1
    27     9    25 1
    28    12    26 1
    29    15    27 1
    30    15    28 1
    31    15    29 1
    32    16    30 1
@<TRIPOS>SUBSTRUCTURE
     1 AV7         1 TEMP              0 ****  ****    0 ROOT
