@<TRIPOS>MOLECULE
AV7
   31    32     1     0     0
SMALL
bcc


@<TRIPOS>ATOM
      1 C10          0.0000     0.0000     0.0000 ca         1 AV7      -0.088000
      2 C13          5.6410    -0.0020     2.4200 ca         1 AV7      -0.146000
      3 C11          1.3810     0.0000     0.0000 ca         1 AV7      -0.113000
      4 C12          4.2590    -0.0010     2.4160 ca         1 AV7      -0.124000
      5 N           -0.7150    -0.0000     3.6100 ns         1 AV7      -0.027100
      6 O            5.8050     0.0010    -2.3170 o          1 AV7      -0.883800
      7 C1           5.6540    -0.0010     0.0140 ca         1 AV7      -0.105600
      8 C14          6.3410    -0.0010     1.2310 ca         1 AV7      -0.055000
      9 C2           4.2600     0.0000     0.0050 ca         1 AV7      -0.064000
     10 C3           3.5620    -0.0010     1.2070 cp         1 AV7      -0.091000
     11 C4           2.0780     0.0000     1.2060 cp         1 AV7       0.027000
     12 C5           1.3800    -0.0010     2.4100 ca         1 AV7      -0.146000
     13 C6          -0.0070     0.0000     2.4020 ca         1 AV7      -0.107400
     14 C7          -1.8800    -0.6700     3.7090 c          1 AV7       0.552100
     15 C8          -2.5890    -0.7570     5.0350 c3         1 AV7      -0.071100
     16 C9          -0.6950    -0.0000     1.1940 ca         1 AV7      -0.127000
     17 O1          -2.3570    -1.2040     2.7300 o          1 AV7      -0.641100
     18 O2           7.7500    -0.0010    -1.2480 o          1 AV7      -0.883800
     19 H8          -0.5400    -0.0000    -0.9390 ha         1 AV7       0.097000
     20 H11          6.1770    -0.0020     3.3610 ha         1 AV7       0.084000
     21 H9           1.9220     0.0000    -0.9380 ha         1 AV7       0.130000
     22 H10          3.7160    -0.0010     3.3530 ha         1 AV7       0.087000
     23 H3          -0.3630     0.5100     4.3960 hn         1 AV7       0.160500
     24 H12          7.4240    -0.0020     1.2400 ha         1 AV7       0.128000
     25 H1           3.7230     0.0000    -0.9360 ha         1 AV7       0.128000
     26 H2           1.9180    -0.0010     3.3510 ha         1 AV7       0.113000
     27 H5          -3.5920    -1.1390     4.8850 hc         1 AV7       0.019033
     28 H4          -2.0440    -1.4230     5.6930 hc         1 AV7       0.019033
     29 H6          -2.6410     0.2290     5.4820 hc         1 AV7       0.019033
     30 H7          -1.7790    -0.0000     1.1890 ha         1 AV7       0.136000
     31 C            6.4040    -0.0000    -1.2600 c          1 AV7       0.974200
@<TRIPOS>BOND
     1     1     3 ar  
     2     1    16 ar  
     3     1    19 1   
     4     2     4 ar  
     5     2     8 ar  
     6     2    20 1   
     7     3    11 ar  
     8     3    21 1   
     9     4    10 ar  
    10     4    22 1   
    11     5    13 1   
    12     5    14 1   
    13     5    23 1   
    14     6    31 1   
    15     7     8 ar  
    16     7     9 ar  
    17     7    31 1   
    18     8    24 1   
    19     9    10 ar  
    20     9    25 1   
    21    10    11 1   
    22    11    12 ar  
    23    12    13 ar  
    24    12    26 1   
    25    13    16 ar  
    26    14    15 1   
    27    14    17 2   
    28    15    27 1   
    29    15    28 1   
    30    15    29 1   
    31    16    30 1   
    32    18    31 1   
@<TRIPOS>SUBSTRUCTURE
     1 AV7         1 TEMP              0 ****  ****    0 ROOT
