@<TRIPOS>MOLECULE
molecule
   51    54     1     0     0
SMALL
bcc


@<TRIPOS>ATOM
      1 C1           0.0000     0.0000     0.0000 ca         1 AV9       0.153100
      2 C2           1.3650     0.0000     0.0000 ca         1 AV9      -0.263300
      3 C3           2.0620     0.0000     1.2200 ca         1 AV9       0.456600
      4 C4           1.3320     0.0020     2.4340 ca         1 AV9      -0.164300
      5 C5          -0.0710     0.0020     2.4040 ca         1 AV9      -0.175000
      6 C6          -0.7210     0.0020     1.2030 ca         1 AV9       0.120100
      7 N7           3.4000    -0.0010     1.2460 nb         1 AV9      -0.713000
      8 C8           4.0670    -0.0010     2.3770 ca         1 AV9       0.463200
      9 C9           3.4220     0.0010     3.6080 ca         1 AV9      -0.354300
     10 C10          2.0390     0.0020     3.6570 ca         1 AV9       0.180100
     11 O11          1.3820     0.0030     4.8430 os         1 AV9      -0.238200
     12 C12          2.1190    -0.0970     5.9810 ca         1 AV9       0.074100
     13 C13          2.8340     0.9980     6.4440 ca         1 AV9      -0.124000
     14 C15          3.6210    -0.3050     8.2980 ca         1 AV9       0.089600
     15 C16          2.9020    -1.3980     7.8370 ca         1 AV9      -0.116000
     16 C17          2.1530    -1.2940     6.6810 ca         1 AV9      -0.112000
     17 O25          7.6090    -4.1840    12.1730 os         1 AV9      -0.004400
     18 C11          3.5830     0.8960     7.6000 ca         1 AV9      -0.007600
     19 N28          4.3810    -0.4100     9.4710 ns         1 AV9      -0.458100
     20 O33         -2.0810     0.0030     1.1740 os         1 AV9      -0.314900
     21 O34         -0.6700     0.0060    -1.1820 os         1 AV9      -0.311900
     22 C35          4.9960    -1.5710     9.7740 c          1 AV9       0.841500
     23 O36          4.8280    -2.5520     9.0700 o          1 AV9      -0.692100
     24 N37          5.7880    -1.6460    10.8440 ne         1 AV9      -0.835100
     25 C38          6.3970    -2.7990    11.1460 cd         1 AV9       0.722500
     26 C30          7.1050    -4.8680    11.1410 cc         1 AV9       0.046900
     27 C43          6.3110    -4.0210    10.4400 cd         1 AV9      -0.344600
     28 N21          7.2260    -3.0360    12.1880 na         1 AV9      -0.593700
     29 Cl4          4.4770     2.2660     8.1790 cl         1 AV9      -0.102400
     30 C49         -2.7570     0.0040     2.4330 c3         1 AV9       0.125700
     31 C53          0.1180     0.0110    -2.3740 c3         1 AV9       0.124700
     32 H2           1.9080    -0.0020    -0.9370 ha         1 AV9       0.161000
     33 H5          -0.6350     0.0030     3.3290 ha         1 AV9       0.157000
     34 H8           5.1500    -0.0020     2.3500 h4         1 AV9       0.022100
     35 H9           3.9990     0.0010     4.5250 ha         1 AV9       0.153000
     36 H13          2.8030     1.9340     5.8990 ha         1 AV9       0.158000
     37 H17          1.5920    -2.1480     6.3210 ha         1 AV9       0.150000
     38 H16          2.9300    -2.3340     8.3820 ha         1 AV9       0.185000
     39 H28          4.4540     0.3710    10.0920 hn         1 AV9       0.342500
     40 H21          7.4860    -2.3580    12.8760 hn         1 AV9       0.530800
     41 H491        -3.8280     0.0010     2.2670 h1         1 AV9       0.042700
     42 H492        -2.4800     0.8910     2.9900 h1         1 AV9       0.042700
     43 H493        -2.4760    -0.8780     2.9950 h1         1 AV9       0.042700
     44 H531        -0.5350     0.0160    -3.2380 h1         1 AV9       0.044367
     45 H532         0.7440     0.8940    -2.3890 h1         1 AV9       0.044367
     46 H533         0.7410    -0.8750    -2.3990 h1         1 AV9       0.044367
     47 H43          6.3400    -4.0240     9.3570 ha         1 AV9       0.214000
     48 H401         7.8980    -6.7790    11.6420 hc         1 AV9       0.070033
     49 H402         6.4280    -6.8280    10.6600 hc         1 AV9       0.070033
     50 H403         7.9710    -6.3800     9.9200 hc         1 AV9       0.070033
     51 C40          7.3690    -6.3150    10.8180 c3         1 AV9      -0.017900
@<TRIPOS>BOND
     1     1     2 ar
     2     1     6 ar
     3     1    21 1
     4     2     3 ar
     5     3     4 ar
     6     3     7 ar
     7     4     5 ar
     8     4    10 ar
     9     5     6 ar
    10     6    20 1
    11     7     8 ar
    12     8     9 ar
    13     9    10 ar
    14    10    11 1
    15    11    12 1
    16    12    13 ar
    17    12    16 ar
    18    13    18 ar
    19    14    15 ar
    20    14    19 1
    21    14    18 ar
    22    15    16 ar
    23    17    26 1
    24    17    28 1
    25    19    22 1
    26    20    30 1
    27    21    31 1
    28    18    29 1
    29    22    23 2
    30    22    24 1
    31    24    25 2
    32    25    27 1
    33    25    28 1
    34    51    26 1
    35    27    26 2
    36     2    32 1
    37     5    33 1
    38     8    34 1
    39     9    35 1
    40    13    36 1
    41    16    37 1
    42    15    38 1
    43    19    39 1
    44    28    40 1
    45    30    41 1
    46    30    42 1
    47    30    43 1
    48    31    44 1
    49    31    45 1
    50    31    46 1
    51    27    47 1
    52    51    48 1
    53    51    49 1
    54    51    50 1
@<TRIPOS>SUBSTRUCTURE
     1 AV9         1 TEMP              0 ****  ****    0 ROOT
