@<TRIPOS>MOLECULE
AV9
   51    54     1     0     0
SMALL
bcc


@<TRIPOS>ATOM
      1 C1           0.0000     0.0000     0.0000 ca         1 AV9       0.154100
      2 C2           1.3650     0.0000     0.0000 ca         1 AV9      -0.258300
      3 C3           2.0620     0.0000     1.2200 ca         1 AV9       0.418600
      4 C4           1.3320     0.0020     2.4340 ca         1 AV9      -0.163300
      5 C5          -0.0710     0.0020     2.4040 ca         1 AV9      -0.167000
      6 C6          -0.7210     0.0020     1.2030 ca         1 AV9       0.124100
      7 N7           3.4000    -0.0010     1.2460 nb         1 AV9      -0.613000
      8 C8           4.0670    -0.0010     2.3770 ca         1 AV9       0.451200
      9 C9           3.4220     0.0010     3.6080 ca         1 AV9      -0.345300
     10 C10          2.0390     0.0020     3.6570 ca         1 AV9       0.189100
     11 O11          1.3820     0.0030     4.8430 os         1 AV9      -0.211200
     12 C12          2.1190    -0.0970     5.9810 ca         1 AV9       0.079100
     13 C13          2.8340     0.9980     6.4440 ca         1 AV9      -0.109000
     14 C15          3.6210    -0.3050     8.2980 ca         1 AV9      -0.064400
     15 C16          2.9020    -1.3980     7.8370 ca         1 AV9      -0.092000
     16 C17          2.1530    -1.2940     6.6810 ca         1 AV9      -0.090000
     17 O25          7.6090    -4.1840    12.1730 os         1 AV9      -0.101400
     18 C11          3.5830     0.8960     7.6000 ca         1 AV9      -0.066600
     19 N28          4.3810    -0.4100     9.4710 ns         1 AV9      -0.017100
     20 O33         -2.0810     0.0030     1.1740 os         1 AV9      -0.294900
     21 O34         -0.6700     0.0060    -1.1820 os         1 AV9      -0.294900
     22 C35          4.9960    -1.5710     9.7740 c          1 AV9       0.718500
     23 O36          4.8280    -2.5520     9.0700 o          1 AV9      -0.737100
     24 N37          5.7880    -1.6460    10.8440 ne         1 AV9      -0.776100
     25 C38          6.3970    -2.7990    11.1460 cd         1 AV9       0.516500
     26 C30          7.1050    -4.8680    11.1410 cc         1 AV9       0.036900
     27 C43          6.3110    -4.0210    10.4400 cd         1 AV9      -0.310600
     28 N21          7.2260    -3.0360    12.1880 na         1 AV9      -0.101700
     29 Cl4          4.4770     2.2660     8.1790 cl         1 AV9      -0.020400
     30 C49         -2.7570     0.0040     2.4330 c3         1 AV9       0.239700
     31 C53          0.1180     0.0110    -2.3740 c3         1 AV9       0.239700
     32 H2           1.9080    -0.0020    -0.9370 ha         1 AV9       0.140000
     33 H5          -0.6350     0.0030     3.3290 ha         1 AV9       0.138000
     34 H8           5.1500    -0.0020     2.3500 h4         1 AV9      -0.024900
     35 H9           3.9990     0.0010     4.5250 ha         1 AV9       0.139000
     36 H13          2.8030     1.9340     5.8990 ha         1 AV9       0.128000
     37 H17          1.5920    -2.1480     6.3210 ha         1 AV9       0.117000
     38 H16          2.9300    -2.3340     8.3820 ha         1 AV9       0.160000
     39 H28          4.4450     0.3680    10.0970 hn         1 AV9       0.178500
     40 H21          7.4860    -2.3580    12.8760 hn         1 AV9       0.332800
     41 H491        -3.8280     0.0080     2.2670 h1         1 AV9      -0.001300
     42 H492        -2.4750     0.8870     2.9930 h1         1 AV9      -0.001300
     43 H493        -2.4810    -0.8820     2.9920 h1         1 AV9      -0.001300
     44 H531         0.7440     0.8940    -2.3900 h1         1 AV9      -0.000633
     45 H532         0.7410    -0.8750    -2.3990 h1         1 AV9      -0.000633
     46 H533        -0.5350     0.0160    -3.2380 h1         1 AV9      -0.000633
     47 H43          6.3400    -4.0240     9.3570 ha         1 AV9       0.191000
     48 H401         7.9710    -6.3800     9.9200 hc         1 AV9       0.023367
     49 H402         7.8980    -6.7790    11.6420 hc         1 AV9       0.023367
     50 H403         6.4280    -6.8280    10.6600 hc         1 AV9       0.023367
     51 C40          7.3690    -6.3150    10.8180 c3         1 AV9       0.106100
@<TRIPOS>BOND
     1     1     2 ar  
     2     1     6 ar  
     3     1    21 1   
     4     2     3 ar  
     5     2    32 1   
     6     3     4 ar  
     7     3     7 ar  
     8     4     5 ar  
     9     4    10 ar  
    10     5     6 ar  
    11     5    33 1   
    12     6    20 1   
    13     7     8 ar  
    14     8     9 ar  
    15     8    34 1   
    16     9    10 ar  
    17     9    35 1   
    18    10    11 1   
    19    11    12 1   
    20    12    13 ar  
    21    12    16 ar  
    22    13    18 ar  
    23    13    36 1   
    24    14    15 ar  
    25    14    18 ar  
    26    14    19 1   
    27    15    16 ar  
    28    15    38 1   
    29    16    37 1   
    30    17    26 1   
    31    17    28 1   
    32    18    29 1   
    33    19    22 1   
    34    19    39 1   
    35    20    30 1   
    36    21    31 1   
    37    22    23 2   
    38    22    24 1   
    39    24    25 2   
    40    25    27 1   
    41    25    28 1   
    42    26    27 2   
    43    26    51 1   
    44    27    47 1   
    45    28    40 1   
    46    30    41 1   
    47    30    42 1   
    48    30    43 1   
    49    31    44 1   
    50    31    45 1   
    51    31    46 1   
    52    48    51 1   
    53    49    51 1   
    54    50    51 1   
@<TRIPOS>SUBSTRUCTURE
     1 AV9         1 TEMP              0 ****  ****    0 ROOT
