@<TRIPOS>MOLECULE
molecule
   23    24     1     0     0
SMALL
bcc


@<TRIPOS>ATOM
      1 C1           0.0000     0.0000     0.0000 ca         1 AVA      -0.116600
      2 C2           1.3940     0.0000     0.0000 ca         1 AVA      -0.054000
      3 C3           2.0850     0.0000     1.2080 cp         1 AVA      -0.201500
      4 C4           3.5670    -0.0000     1.2160 cp         1 AVA       0.518800
      5 C5           4.2520    -0.0000     2.4290 ca         1 AVA      -0.261300
      6 C6           5.6360    -0.0000     2.4210 ca         1 AVA      -0.099000
      7 O1          -2.0880    -0.0000    -1.2750 o          1 AVA      -0.835300
      8 N            4.2320    -0.0060     0.0670 nb         1 AVA      -0.681000
      9 C           -0.7410    -0.0010    -1.2780 c          1 AVA       0.883200
     10 O           -0.1360    -0.0020    -2.3310 o          1 AVA      -0.835300
     11 C10         -0.0030    -0.0090     2.4070 ca         1 AVA      -0.173000
     12 C11         -0.6940    -0.0040     1.2130 ca         1 AVA      -0.076000
     13 C7           6.2920    -0.0000     1.1970 ca         1 AVA      -0.289300
     14 C8           5.5480    -0.0060     0.0310 ca         1 AVA       0.424200
     15 C9           1.3790     0.0010     2.4110 ca         1 AVA      -0.134000
     16 H            1.9350     0.0880    -0.9340 ha         1 AVA       0.170000
     17 H1           3.7090     0.0000     3.3660 ha         1 AVA       0.138000
     18 H2           6.1950     0.0020     3.3490 ha         1 AVA       0.121000
     19 H6          -0.5450    -0.0100     3.3440 ha         1 AVA       0.107000
     20 H7          -1.7770    -0.0080     1.2150 ha         1 AVA       0.155000
     21 H3           7.3740    -0.0000     1.1560 ha         1 AVA       0.121000
     22 H4           6.0560    -0.0090    -0.9260 h4         1 AVA       0.013100
     23 H5           1.9160    -0.0010     3.3520 ha         1 AVA       0.103000
@<TRIPOS>BOND
     1    10     9 1
     2     9     7 1
     3     9     1 1
     4    12    11 ar
     5    12     1 ar
     6    11    15 ar
     7     1     2 ar
     8    15     3 ar
     9     2     3 ar
    10     3     4 1
    11     4     5 ar
    12     4     8 ar
    13     5     6 ar
    14     8    14 ar
    15     6    13 ar
    16    14    13 ar
    17     2    16 1
    18     5    17 1
    19     6    18 1
    20    11    19 1
    21    12    20 1
    22    13    21 1
    23    14    22 1
    24    15    23 1
@<TRIPOS>SUBSTRUCTURE
     1 AVA         1 TEMP              0 ****  ****    0 ROOT
