@<TRIPOS>MOLECULE
molecule
   30    31     1     0     0
SMALL
bcc


@<TRIPOS>ATOM
      1 Br1          0.0000     0.0000     0.0000 br         1 AVB      -0.087100
      2 C02          1.8900     0.0000     0.0000 ca         1 AVB      -0.187200
      3 C03          2.5920     0.0000     1.1990 ca         1 AVB      -0.040000
      4 C04          3.9760    -0.0010     1.1540 ca         1 AVB      -0.300300
      5 C05          4.6130    -0.0020    -0.0810 ca         1 AVB       0.567200
      6 N06          3.9090    -0.0020    -1.2020 nb         1 AVB      -0.680000
      7 C07          2.5900    -0.0060    -1.1920 ca         1 AVB       0.483200
      8 N08          6.0050    -0.0030    -0.1400 ns         1 AVB      -0.556400
      9 C09          6.6290    -0.1060    -1.3310 c          1 AVB       0.647100
     10 O10          5.9830    -0.1060    -2.3560 o          1 AVB      -0.523100
     11 C11          8.1300    -0.2220    -1.3860 c3         1 AVB      -0.144700
     12 C12          8.5810    -0.3280    -2.8460 c3         1 AVB      -0.062400
     13 C13         10.1010    -0.5060    -2.8900 c3         1 AVB      -0.081400
     14 C14         10.4890    -1.7500    -2.0890 c3         1 AVB       0.155800
     15 N15         10.0370    -1.6010    -0.7000 n7         1 AVB      -0.820200
     16 C16          8.5750    -1.4750    -0.6270 c3         1 AVB       0.164800
     17 H1           2.0690     0.0010     2.1470 ha         1 AVB       0.151000
     18 H2           4.5540    -0.0010     2.0700 ha         1 AVB       0.140000
     19 H3           2.0470    -0.0060    -2.1300 h4         1 AVB       0.042100
     20 H4           6.5410     0.1220     0.6960 hn         1 AVB       0.332500
     21 H5           8.5820     0.6520    -0.9330 hc         1 AVB       0.079700
     22 H6           8.1040    -1.1830    -3.3100 hc         1 AVB       0.059700
     23 H7           8.3080     0.5770    -3.3750 hc         1 AVB       0.059700
     24 H8          10.5790     0.3650    -2.4570 hc         1 AVB       0.051700
     25 H9          10.4200    -0.6260    -3.9190 hc         1 AVB       0.051700
     26 H10         11.5660    -1.8680    -2.1060 h1         1 AVB       0.034700
     27 H11         10.0190    -2.6220    -2.5280 h1         1 AVB       0.034700
     28 H12         10.3300    -2.3940    -0.1660 hn         1 AVB       0.357800
     29 H14          8.1170    -2.3480    -1.0760 h1         1 AVB       0.035200
     30 H15          8.2720    -1.3940     0.4090 h1         1 AVB       0.035200
@<TRIPOS>BOND
     1    14    13 1
     2    14    15 1
     3    13    12 1
     4    12    11 1
     5     6     7 ar
     6     6     5 ar
     7     7     2 ar
     8    15    16 1
     9     8     5 1
    10     8     9 1
    11    16    11 1
    12    11     9 1
    13     5     4 ar
    14     9    10 2
    15     2     1 1
    16     2     3 ar
    17     4     3 ar
    18     3    17 1
    19     4    18 1
    20     7    19 1
    21     8    20 1
    22    11    21 1
    23    12    22 1
    24    12    23 1
    25    13    24 1
    26    13    25 1
    27    14    26 1
    28    14    27 1
    29    15    28 1
    30    16    29 1
    31    16    30 1
@<TRIPOS>SUBSTRUCTURE
     1 AVB         1 TEMP              0 ****  ****    0 ROOT
