@<TRIPOS>MOLECULE
AVD
   44    47     1     0     0
SMALL
bcc


@<TRIPOS>ATOM
      1 C5           0.0000     0.0000     0.0000 ca         1 AVD       0.044900
      2 C6           1.3860     0.0000     0.0000 ca         1 AVD      -0.119000
      3 C2           1.3820     0.0000     2.4000 ca         1 AVD       0.031600
      4 C4          -0.6940     0.0060     1.1980 ca         1 AVD      -0.110000
      5 O40          7.6420     1.2590     1.2420 o          1 AVD      -0.865800
      6 O41          8.1530     2.9030    -0.1610 o          1 AVD      -0.865800
      7 C34          8.0070     3.3350     2.2410 ca         1 AVD      -0.068600
      8 C33          8.3270     4.6830     2.0600 ca         1 AVD      -0.069000
      9 C32          8.4050     5.5230     3.1500 ca         1 AVD      -0.130000
     10 C31          8.1660     5.0390     4.4250 ca         1 AVD      -0.141000
     11 C30          7.8480     3.7090     4.6200 ca         1 AVD      -0.111000
     12 C28          7.7610     2.8490     3.5340 ca         1 AVD      -0.051400
     13 N21          7.4390     1.5070     3.7290 na         1 AVD       0.181800
     14 C22          8.4350     0.6310     3.9350 cc         1 AVD      -0.064000
     15 C23          8.1990    -0.7150     4.1360 cd         1 AVD      -0.260400
     16 C26          9.3170    -1.6430     4.3590 c          1 AVD       0.999800
     17 O42         10.4590    -1.2270     4.3680 o          1 AVD      -0.895800
     18 O27          9.0750    -2.9540     4.5540 o          1 AVD      -0.895800
     19 C24          6.8110    -1.2040     4.1230 c          1 AVD       0.633900
     20 O25          6.5530    -2.3820     4.2960 o          1 AVD      -0.568100
     21 C17          5.7460    -0.2100     3.8930 ca         1 AVD      -0.207600
     22 C18          4.4040    -0.5870     3.8630 ca         1 AVD       0.020000
     23 C16          6.1090     1.1350     3.7060 ca         1 AVD       0.081600
     24 C15          5.1140     2.0860     3.4920 ca         1 AVD      -0.172000
     25 C14          3.7900     1.7070     3.4710 ca         1 AVD       0.036400
     26 Cl29         2.5590     2.9010     3.2050 cl         1 AVD      -0.088400
     27 C13          3.4300     0.3700     3.6450 ca         1 AVD      -0.159400
     28 N10          2.0820    -0.0000     3.6140 nu         1 AVD      -0.197000
     29 C3          -0.0070     0.0060     2.3970 ca         1 AVD      -0.090600
     30 Cl12        -0.8780     0.0070     3.8990 cl         1 AVD      -0.047400
     31 F11         -0.6750    -0.0000    -1.1700 f          1 AVD      -0.140900
     32 C1           2.0780     0.0000     1.1960 ca         1 AVD       0.107900
     33 F9           3.4300    -0.0060     1.1950 f          1 AVD      -0.094900
     34 H6           1.9270    -0.0020    -0.9390 ha         1 AVD       0.134000
     35 H4          -1.7780     0.0080     1.1960 ha         1 AVD       0.113000
     36 H33          8.5150     5.0670     1.0640 ha         1 AVD       0.130000
     37 H32          8.6540     6.5680     3.0080 ha         1 AVD       0.079000
     38 H31          8.2320     5.7060     5.2760 ha         1 AVD       0.081000
     39 H30          7.6610     3.3390     5.6200 ha         1 AVD       0.099000
     40 H22          9.4560     0.9910     3.9440 h4         1 AVD       0.150000
     41 H18          4.1260    -1.6260     3.9990 ha         1 AVD       0.117000
     42 H15          5.3820     3.1250     3.3430 ha         1 AVD       0.132000
     43 HN10         1.6160    -0.2660     4.4590 hn         1 AVD       0.280800
     44 C39          7.9210     2.4310     1.0800 c          1 AVD       0.958200
@<TRIPOS>BOND
     1     1     2 ar  
     2     1     4 ar  
     3     1    31 1   
     4     2    32 ar  
     5     2    34 1   
     6     3    28 1   
     7     3    29 ar  
     8     3    32 ar  
     9     4    29 ar  
    10     4    35 1   
    11     5    44 1   
    12     6    44 1   
    13     7     8 ar  
    14     7    12 ar  
    15     7    44 1   
    16     8     9 ar  
    17     8    36 1   
    18     9    10 ar  
    19     9    37 1   
    20    10    11 ar  
    21    10    38 1   
    22    11    12 ar  
    23    11    39 1   
    24    12    13 1   
    25    13    14 1   
    26    13    23 1   
    27    14    15 2   
    28    14    40 1   
    29    15    16 1   
    30    15    19 1   
    31    16    17 1   
    32    16    18 1   
    33    19    20 2   
    34    19    21 1   
    35    21    22 ar  
    36    21    23 ar  
    37    22    27 ar  
    38    22    41 1   
    39    23    24 ar  
    40    24    25 ar  
    41    24    42 1   
    42    25    26 1   
    43    25    27 ar  
    44    27    28 1   
    45    28    43 1   
    46    29    30 1   
    47    32    33 1   
@<TRIPOS>SUBSTRUCTURE
     1 AVD         1 TEMP              0 ****  ****    0 ROOT
