@<TRIPOS>MOLECULE
molecule
   36    37     1     0     0
SMALL
bcc


@<TRIPOS>ATOM
      1 C1           0.0000     0.0000     0.0000 ca         1 AVE       0.123900
      2 C2           1.3890     0.0000     0.0000 ca         1 AVE       0.087900
      3 C3           2.0810     0.0000     1.1930 ca         1 AVE      -0.115000
      4 C13          4.1360     0.0030     4.8550 c          1 AVE       0.764100
      5 C15          6.1790     0.0990     6.0650 ca         1 AVE       0.022600
      6 C16          5.6660    -0.4990     7.2100 ca         1 AVE      -0.128000
      7 C19          8.0800     0.8830     7.3110 ca         1 AVE      -0.163000
      8 C20          7.3890     0.7910     6.1180 ca         1 AVE       0.056100
      9 O28          1.5070     0.0010     4.7340 o          1 AVE      -0.494100
     10 C30          9.1320     2.0680     5.1250 c3         1 AVE       0.795700
     11 C5          -0.0150     0.0000     2.3970 ca         1 AVE       0.084400
     12 C6          -0.6980     0.0000     1.1970 ca         1 AVE      -0.155000
     13 F11         -0.6730     0.0060    -1.1720 f          1 AVE      -0.122900
     14 F34          2.0630    -0.0010    -1.1710 f          1 AVE      -0.125900
     15 C4           1.3820     0.0000     2.4030 ca         1 AVE      -0.131600
     16 N12          3.4650     0.0020     3.6860 ns         1 AVE      -0.590500
     17 O27          3.5250     0.0030     5.9070 o          1 AVE      -0.570100
     18 N14          5.4840     0.0030     4.8580 ns         1 AVE      -0.472100
     19 C17          6.3510    -0.4110     8.4020 ca         1 AVE      -0.098000
     20 C18          7.5640     0.2800     8.4620 ca         1 AVE      -0.071600
     21 O26          7.7990    -0.2050    10.8470 o          1 AVE      -0.828300
     22 O25          9.3520     0.9770     9.7890 o          1 AVE      -0.828300
     23 O29          7.8890     1.3760     4.9970 os         1 AVE      -0.368900
     24 F32          9.4970     2.6040     3.8850 f          1 AVE      -0.209300
     25 F33          8.9980     3.1010     6.0580 f          1 AVE      -0.209300
     26 F31         10.1200     1.1760     5.5550 f          1 AVE      -0.209300
     27 H3           3.1650     0.0000     1.1920 ha         1 AVE       0.154000
     28 H16          4.7260    -1.0360     7.1660 ha         1 AVE       0.158000
     29 H19          9.0200     1.4200     7.3530 ha         1 AVE       0.168000
     30 H6          -1.7810     0.0000     1.1910 ha         1 AVE       0.167000
     31 HN12         3.9680    -0.0220     2.8210 hn         1 AVE       0.309500
     32 HN14         5.9850    -0.1140     4.0000 hn         1 AVE       0.313500
     33 H17          5.9500    -0.8790     9.2930 ha         1 AVE       0.168000
     34 C9           2.1170     0.0010     3.6830 c          1 AVE       0.668700
     35 Cl10        -0.8920     0.0000     3.8950 cl         1 AVE      -0.030400
     36 C24          8.2970     0.3750     9.7380 c          1 AVE       0.880200
@<TRIPOS>BOND
     1     1     2 ar
     2    13     1 1
     3     1    12 ar
     4     2     3 ar
     5    14     2 1
     6     3    15 ar
     7     3    27 1
     8    15    34 1
     9    16    34 1
    10    34     9 2
    11    17     4 2
    12    16     4 1
    13     4    18 1
    14    18     5 1
    15     6     5 ar
    16     5     8 ar
    17     6    19 ar
    18     6    28 1
    19     8     7 ar
    20    20     7 ar
    21     7    29 1
    22     8    23 1
    23    20    36 1
    24    22    36 1
    25    36    21 1
    26    23    10 1
    27    25    10 1
    28    10    26 1
    29    10    24 1
    30    11    35 1
    31    11    12 ar
    32    11    15 ar
    33    12    30 1
    34    16    31 1
    35    18    32 1
    36    19    20 ar
    37    19    33 1
@<TRIPOS>SUBSTRUCTURE
     1 AVE         1 TEMP              0 ****  ****    0 ROOT
