@<TRIPOS>MOLECULE
molecule
   47    49     1     0     0
SMALL
bcc


@<TRIPOS>ATOM
      1 C1           0.0000     0.0000     0.0000 ca         1 AVF       0.126900
      2 C2           1.3880     0.0000     0.0000 ca         1 AVF       0.092900
      3 C3           2.0810     0.0000     1.1930 ca         1 AVF      -0.111000
      4 C11          4.1370     0.0020     4.8540 c          1 AVF       0.769100
      5 C13          6.1820     0.1220     6.0660 ca         1 AVF       0.108600
      6 C14          5.5850     0.7360     7.1570 ca         1 AVF      -0.180000
      7 C15          6.2760     0.8520     8.3500 ca         1 AVF       0.127900
      8 C16          7.5650     0.3580     8.4590 ca         1 AVF      -0.185000
      9 C24          9.3170    -0.2970     4.6930 c3         1 AVF       0.160800
     10 C27          9.8740    -0.9120     3.4070 c3         1 AVF      -0.057400
     11 C28         10.1680    -2.3960     3.6430 c3         1 AVF      -0.173700
     12 C29         10.6610    -3.0210     2.3630 c          1 AVF       0.895600
     13 O31         10.7680    -2.3490     1.3650 o          1 AVF      -0.848800
     14 O30         10.9820    -4.3240     2.3330 o          1 AVF      -0.848800
     15 C26          8.8820    -3.0970     4.0920 c3         1 AVF      -0.057400
     16 C25          8.3530    -2.4190     5.3570 c3         1 AVF       0.160800
     17 N21          8.0880    -1.0020     5.0810 nh         1 AVF      -0.629000
     18 C18          7.4780    -0.3810     6.1790 ca         1 AVF       0.056600
     19 C17          8.1660    -0.2550     7.3760 ca         1 AVF      -0.119000
     20 F23          5.6910     1.4500     9.4120 f          1 AVF      -0.148900
     21 N12          5.4840     0.0020     4.8570 ns         1 AVF      -0.463100
     22 O19          3.5270     0.0020     5.9060 o          1 AVF      -0.584100
     23 N10          3.4650     0.0010     3.6850 ns         1 AVF      -0.587500
     24 O20          1.5080     0.0020     4.7340 o          1 AVF      -0.501100
     25 C4           1.3820     0.0000     2.4020 ca         1 AVF      -0.135600
     26 F22          2.0620    -0.0010    -1.1720 f          1 AVF      -0.118900
     27 F9          -0.6730    -0.0000    -1.1710 f          1 AVF      -0.120900
     28 C6          -0.6990    -0.0040     1.1970 ca         1 AVF      -0.156000
     29 C5          -0.0150     0.0010     2.3970 ca         1 AVF       0.084400
     30 Cl8         -0.8920     0.0010     3.8950 cl         1 AVF      -0.037400
     31 H3           3.1640     0.0000     1.1920 ha         1 AVF       0.159000
     32 H14          4.5960     1.1680     7.0600 ha         1 AVF       0.181000
     33 H16          8.0650     0.4720     9.4130 ha         1 AVF       0.136000
     34 H24         10.0500    -0.3910     5.4840 h1         1 AVF       0.023700
     35 H24A         9.0930     0.7500     4.5230 h1         1 AVF       0.023700
     36 H27         10.7900    -0.4020     3.1310 hc         1 AVF       0.054950
     37 H27A         9.1450    -0.8100     2.6120 hc         1 AVF       0.054950
     38 H28         10.9220    -2.4960     4.4150 hc         1 AVF       0.038700
     39 H26          8.1390    -3.0260     3.3070 hc         1 AVF       0.054950
     40 H26A         9.0940    -4.1380     4.3030 hc         1 AVF       0.054950
     41 H25          9.0930    -2.4990     6.1450 h1         1 AVF       0.023700
     42 H25A         7.4350    -2.9030     5.6670 h1         1 AVF       0.023700
     43 H17          9.1750    -0.6410     7.4640 ha         1 AVF       0.147000
     44 HN12         5.9860    -0.0420     3.9920 hn         1 AVF       0.345500
     45 HN10         3.9670    -0.0190     2.8190 hn         1 AVF       0.320500
     46 H6          -1.7820    -0.0040     1.1920 ha         1 AVF       0.167000
     47 C7           2.1180     0.0020     3.6830 c          1 AVF       0.672700
@<TRIPOS>BOND
     1     1     2 ar
     2    28     1 ar
     3     1    27 1
     4     2     3 ar
     5     2    26 1
     6     3    25 ar
     7     3    31 1
     8    24    47 2
     9    47    23 1
    10    47    25 1
    11    21     4 1
    12     4    22 2
    13     4    23 1
    14    18     5 ar
    15     5     6 ar
    16     5    21 1
    17     7     6 ar
    18     6    32 1
    19     8     7 ar
    20     7    20 1
    21    19     8 ar
    22     8    33 1
    23    10     9 1
    24     9    17 1
    25     9    34 1
    26     9    35 1
    27    10    11 1
    28    10    36 1
    29    10    37 1
    30    12    11 1
    31    11    15 1
    32    11    38 1
    33    13    12 1
    34    12    14 1
    35    15    16 1
    36    15    39 1
    37    15    40 1
    38    17    16 1
    39    16    41 1
    40    16    42 1
    41    17    18 1
    42    19    18 ar
    43    19    43 1
    44    21    44 1
    45    23    45 1
    46    25    29 ar
    47    28    29 ar
    48    28    46 1
    49    30    29 1
@<TRIPOS>SUBSTRUCTURE
     1 AVF         1 TEMP              0 ****  ****    0 ROOT
