@<TRIPOS>MOLECULE
molecule
   26    25     1     0     0
SMALL
bcc


@<TRIPOS>ATOM
      1 O1           0.0000     0.0000     0.0000 o          1 AVG      -0.751800
      2 O2           1.9450     0.0140    -1.0470 o          1 AVG      -0.751800
      3 C1           1.3420     0.0000     0.0000 c          1 AVG       0.860600
      4 C2           2.0970     0.0000     1.3040 c3         1 AVG      -0.015500
      5 N1           3.3800    -0.6910     1.1260 nz         1 AVG      -0.794600
      6 C3           2.3510     1.4410     1.7480 c3         1 AVG      -0.093400
      7 C4           3.1170     1.4400     3.0720 c3         1 AVG       0.109400
      8 O3           3.3550     2.7860     3.4860 os         1 AVG      -0.421600
      9 C5           4.0690     2.7190     4.7210 c3         1 AVG       0.094400
     10 C6           4.3560     4.1350     5.2240 c3         1 AVG       0.100800
     11 N2           3.0900     4.8480     5.4290 nz         1 AVG      -0.805600
     12 HC2          1.5120    -0.5120     2.0590 hx         1 AVG       0.107700
     13 HN11         3.2570    -1.4710     0.5110 hn         1 AVG       0.442800
     14 HN12         4.0480    -0.0580     0.7340 hn         1 AVG       0.442800
     15 HC31         1.4050     1.9510     1.8790 hc         1 AVG       0.101700
     16 HC32         2.9360     1.9530     0.9930 hc         1 AVG       0.101700
     17 HC41         4.0640     0.9300     2.9410 h1         1 AVG       0.027700
     18 HC42         2.5330     0.9280     3.8260 h1         1 AVG       0.027700
     19 HC51         5.0040     2.1930     4.5690 h1         1 AVG       0.070700
     20 HC52         3.4730     2.1890     5.4540 h1         1 AVG       0.070700
     21 HC61         4.9540     4.6630     4.4910 hx         1 AVG       0.121200
     22 HC62         4.8970     4.0820     6.1610 hx         1 AVG       0.121200
     23 HN21         2.7170     5.1270     4.5430 hn         1 AVG       0.463467
     24 HN22         3.2510     5.6580     5.9930 hn         1 AVG       0.463467
     25 H13          3.7100    -1.0150     2.0140 hn         1 AVG       0.442800
     26 H23          2.4430     4.2490     5.9020 hn         1 AVG       0.463467
@<TRIPOS>BOND
     1     1     3 1
     2     2     3 1
     3     3     4 1
     4     4     5 1
     5     4     6 1
     6     4    12 1
     7     5    13 1
     8     5    14 1
     9     6     7 1
    10     6    15 1
    11     6    16 1
    12     7     8 1
    13     7    17 1
    14     7    18 1
    15     8     9 1
    16     9    10 1
    17     9    19 1
    18     9    20 1
    19    10    11 1
    20    10    21 1
    21    10    22 1
    22    11    23 1
    23    11    24 1
    24    25     5 1
    25    26    11 1
@<TRIPOS>SUBSTRUCTURE
     1 AVG         1 TEMP              0 ****  ****    0 ROOT
