@<TRIPOS>MOLECULE
molecule
   24    24     1     0     0
SMALL
bcc


@<TRIPOS>ATOM
      1 C1           0.0000     0.0000     0.0000 c3         1 AVH       0.145100
      2 C2           1.5300     0.0000     0.0000 c3         1 AVH      -0.099400
      3 C3           2.0400     0.0000     1.4430 c3         1 AVH      -0.074400
      4 C4           1.5310    -1.2500     2.1630 c3         1 AVH      -0.039500
      5 C5           0.0010    -1.2510     2.1630 c3         1 AVH      -0.092400
      6 C6          -0.5090    -1.2500     0.7200 c3         1 AVH       0.144100
      7 C7           2.0320    -1.2510     3.5840 c2         1 AVH      -0.168200
      8 C8           2.7860    -2.2340     4.0120 c2         1 AVH      -0.220000
      9 O2          -1.9390    -1.2500     0.7200 oh         1 AVH      -0.602800
     10 H1          -0.3590     0.8830     0.5150 h1         1 AVH       0.043700
     11 H3           1.8900     0.8860    -0.5090 hc         1 AVH       0.052200
     12 H4           1.8900    -0.8860    -0.5090 hc         1 AVH       0.052200
     13 H5           3.1240    -0.0020     1.4420 hc         1 AVH       0.047200
     14 H6           1.6760     0.8830     1.9530 hc         1 AVH       0.047200
     15 H7           1.8900    -2.1330     1.6480 hc         1 AVH       0.055700
     16 H8          -0.3590    -2.1380     2.6700 hc         1 AVH       0.054200
     17 H9          -0.3600    -0.3660     2.6730 hc         1 AVH       0.054200
     18 H10         -0.1430    -2.1320     0.2090 h1         1 AVH       0.043700
     19 H11          1.7710    -0.4390     4.2510 ha         1 AVH       0.125000
     20 H12          3.1470    -2.2350     5.0330 ha         1 AVH       0.112500
     21 H13          3.0480    -3.0460     3.3440 ha         1 AVH       0.112500
     22 H14         -2.2530    -2.1110     0.4950 ho         1 AVH       0.405000
     23 O1          -0.4760     0.0010    -1.3480 oh         1 AVH      -0.603800
     24 H2          -0.8230     0.8520    -1.5580 ho         1 AVH       0.405000
@<TRIPOS>BOND
     1     9     6 1
     2     1     2 1
     3     1     6 1
     4     2     3 1
     5     6     5 1
     6     3     4 1
     7     5     4 1
     8     4     7 1
     9     7     8 2
    10     1    10 1
    11     2    11 1
    12     2    12 1
    13     3    13 1
    14     3    14 1
    15     4    15 1
    16     5    16 1
    17     5    17 1
    18     6    18 1
    19     7    19 1
    20     8    20 1
    21     8    21 1
    22     9    22 1
    23     1    23 1
    24    23    24 1
@<TRIPOS>SUBSTRUCTURE
     1 AVH         1 TEMP              0 ****  ****    0 ROOT
