@<TRIPOS>MOLECULE
molecule
   25    25     1     0     0
SMALL
bcc


@<TRIPOS>ATOM
      1 CAL          0.0000     0.0000     0.0000 c3         1 AVI       0.145100
      2 N            1.4690     0.0000     0.0000 n3         1 AVI      -0.724600
      3 CAM          1.9950     0.0000     1.3710 c3         1 AVI       0.145100
      4 CA           1.9950    -1.1370    -0.7670 c3         1 AVI       0.067500
      5 C            1.6150    -2.4240    -0.0810 c          1 AVI       0.866600
      6 OXT          1.9910    -3.6000    -0.6060 o          1 AVI      -0.851300
      7 O            0.9710    -2.3970     0.9410 o          1 AVI      -0.851300
      8 CB           3.5200    -1.0330    -0.8490 c3         1 AVI      -0.079700
      9 CG           3.8980     0.1910    -1.6420 cc         1 AVI       0.371600
     10 ND1          3.4850     0.4840    -2.8830 nc         1 AVI      -0.683000
     11 CE1          4.0110     1.6200    -3.2540 cd         1 AVI       0.366400
     12 NE2          4.7820     2.0880    -2.2500 na         1 AVI      -0.310900
     13 CD2          4.7060     1.1850    -1.2260 cd         1 AVI      -0.300600
     14 HE2         -0.3610    -0.6540     0.7840 h1         1 AVI       0.027033
     15 HE3         -0.3610    -0.3520    -0.9590 h1         1 AVI       0.027033
     16 HAL         -0.3610     1.0060     0.1740 h1         1 AVI       0.027033
     17 HE4          1.7570     0.9430     1.8490 h1         1 AVI       0.027033
     18 HAM          1.5450    -0.8110     1.9310 h1         1 AVI       0.027033
     19 HE5          3.0700    -0.1310     1.3460 h1         1 AVI       0.027033
     20 HA           1.5780    -1.1230    -1.7660 h1         1 AVI       0.073700
     21 HB1          3.9160    -1.9160    -1.3370 hc         1 AVI       0.058700
     22 HB2          3.9310    -0.9580     0.1500 hc         1 AVI       0.058700
     23 HE1          3.8560     2.1060    -4.2100 h5         1 AVI       0.045100
     24 HKL          5.3070     2.9400    -2.2530 hn         1 AVI       0.276700
     25 HD2          5.2050     1.2520    -0.2670 h4         1 AVI       0.165000
@<TRIPOS>BOND
     1     7     5 1
     2     5     6 1
     3     5     4 1
     4    12    13 1
     5    12    11 1
     6    13     9 2
     7     3     2 1
     8    11    10 2
     9     4     2 1
    10     4     8 1
    11     9    10 1
    12     9     8 1
    13     2     1 1
    14     1    14 1
    15     1    15 1
    16     1    16 1
    17     3    17 1
    18     3    18 1
    19     3    19 1
    20     4    20 1
    21     8    21 1
    22     8    22 1
    23    11    23 1
    24    12    24 1
    25    13    25 1
@<TRIPOS>SUBSTRUCTURE
     1 AVI         1 TEMP              0 ****  ****    0 ROOT
