@<TRIPOS>MOLECULE
AVJ
   29    29     1     0     0
SMALL
bcc


@<TRIPOS>ATOM
      1 CAA          0.0000     0.0000     0.0000 c3         1 AVJ      -0.032233
      2 CAB          1.9590     0.0000     1.3850 c3         1 AVJ      -0.032233
      3 CAC          1.9580    -1.2000    -0.6930 c3         1 AVJ      -0.032233
      4 CAM         -0.2150     2.6340     1.7620 cc         1 AVJ       0.318200
      5 CAP          1.8060     2.4150     0.2210 c3         1 AVJ       0.078900
      6 NAR         -0.6590     2.8460    -0.3620 na         1 AVJ       0.248100
      7 NAT         -1.5290     2.8530     1.6120 nc         1 AVJ      -0.608000
      8 CAX          3.4120     1.0160    -1.0490 c          1 AVJ       0.958600
      9 CAY          0.3490     2.6260     0.5380 cd         1 AVJ      -0.476900
     10 CAZ         -1.8030     2.9810     0.3430 cd         1 AVJ       0.217400
     11 CBC          1.9590     1.1980    -0.6940 c3         1 AVJ      -0.169500
     12 NBE          1.4690     0.0000     0.0000 n4         1 AVJ       0.113200
     13 HAA         -0.3610     0.5010    -0.8900 hx         1 AVJ       0.075811
     14 HAAA        -0.3610     0.5210     0.8790 hx         1 AVJ       0.075811
     15 HAAB        -0.3610    -1.0210     0.0120 hx         1 AVJ       0.075811
     16 HAB          1.9930    -1.0170     1.7560 hx         1 AVJ       0.075811
     17 HABA         2.9540     0.4290     1.4160 hx         1 AVJ       0.075811
     18 HABB         1.2930     0.5880     2.0040 hx         1 AVJ       0.075811
     19 HAC          1.8550    -1.0660    -1.7630 hx         1 AVJ       0.075811
     20 HACA         1.3780    -2.0590    -0.3790 hx         1 AVJ       0.075811
     21 HACB         3.0010    -1.3590    -0.4470 hx         1 AVJ       0.075811
     22 HAM          0.3030     2.4890     2.7030 h4         1 AVJ       0.012100
     23 HAP          2.3550     2.2470     1.1400 hc         1 AVJ       0.061200
     24 HAPA         2.1980     3.2930    -0.2780 hc         1 AVJ       0.061200
     25 HNAR        -0.5650     2.8970    -1.3570 hn         1 AVJ       0.133700
     26 HAZ         -2.7850     3.1650    -0.0770 h5         1 AVJ       0.031100
     27 HBC          1.3830     1.3530    -1.5990 hx         1 AVJ       0.075700
     28 OAL          3.8750     1.4540    -2.2290 o          1 AVJ      -0.819300
     29 OAH          4.1600     0.4740    -0.2690 o          1 AVJ      -0.819300
@<TRIPOS>BOND
     1     1    12 1   
     2     1    13 1   
     3     1    14 1   
     4     1    15 1   
     5     2    12 1   
     6     2    16 1   
     7     2    17 1   
     8     2    18 1   
     9     3    12 1   
    10     3    19 1   
    11     3    20 1   
    12     3    21 1   
    13     4     7 1   
    14     4     9 2   
    15     4    22 1   
    16     5     9 1   
    17     5    11 1   
    18     5    23 1   
    19     5    24 1   
    20     6     9 1   
    21     6    10 1   
    22     6    25 1   
    23     7    10 2   
    24     8    11 1   
    25     8    28 1   
    26     8    29 1   
    27    10    26 1   
    28    11    12 1   
    29    11    27 1   
@<TRIPOS>SUBSTRUCTURE
     1 AVJ         1 TEMP              0 ****  ****    0 ROOT
