@<TRIPOS>MOLECULE
molecule
   40    42     1     0     0
SMALL
bcc


@<TRIPOS>ATOM
      1 Cl           0.0000     0.0000     0.0000 cl         1 AVK      -0.102400
      2 C            1.7360     0.0000     0.0000 ca         1 AVK       0.035400
      3 C11          2.4360     0.0000     1.2070 cp         1 AVK      -0.026000
      4 C12          1.6990     0.0020     2.4940 cp         1 AVK      -0.048000
      5 C17          0.6800     0.9250     2.7170 ca         1 AVK      -0.106500
      6 C16         -0.0030     0.9220     3.9160 ca         1 AVK      -0.131500
      7 C15          0.3240     0.0040     4.8980 ca         1 AVK      -0.122000
      8 C14          1.3350    -0.9160     4.6830 ca         1 AVK      -0.131500
      9 C13          2.0190    -0.9250     3.4850 ca         1 AVK      -0.106500
     10 C10          3.8290    -0.0000     1.1990 ca         1 AVK      -0.111000
     11 C9           4.5100    -0.0020    -0.0030 ca         1 AVK      -0.105000
     12 C2           3.8110    -0.0030    -1.1970 ca         1 AVK      -0.078300
     13 C1           2.4280    -0.0070    -1.1950 ca         1 AVK      -0.119000
     14 C3           4.5610    -0.0050    -2.5040 c3         1 AVK       0.206100
     15 N            4.8030    -1.3900    -2.9270 n7         1 AVK      -0.822200
     16 C4           5.5330    -1.4300    -4.2020 c3         1 AVK       0.159800
     17 C5           5.7670    -2.8870    -4.6090 c3         1 AVK      -0.090700
     18 C6           6.5170    -2.9280    -5.9160 cc         1 AVK       0.396800
     19 N2           7.6760    -3.5840    -6.1380 na         1 AVK      -0.291900
     20 C8           8.0180    -3.3700    -7.4460 cc         1 AVK      -0.279600
     21 C7           7.0570    -2.5920    -7.9780 cd         1 AVK       0.314200
     22 N1           6.1490    -2.3420    -7.0220 nd         1 AVK      -0.699000
     23 H1           0.4230     1.6450     1.9490 ha         1 AVK       0.136500
     24 H2          -0.7960     1.6400     4.0890 ha         1 AVK       0.130500
     25 H3          -0.2120     0.0060     5.8390 ha         1 AVK       0.129000
     26 H4           1.5850    -1.6340     5.4540 ha         1 AVK       0.130500
     27 H5           2.8110    -1.6460     3.3180 ha         1 AVK       0.136500
     28 H6           4.3770     0.0000     2.1330 ha         1 AVK       0.142000
     29 H7           5.5930    -0.0000    -0.0100 ha         1 AVK       0.140000
     30 H8           1.8860    -0.0080    -2.1330 ha         1 AVK       0.143000
     31 H9           3.9730     0.5060    -3.2580 h1         1 AVK       0.042700
     32 H10          5.5080     0.5050    -2.3770 h1         1 AVK       0.042700
     33 H11          3.9290    -1.8660    -3.0290 hn         1 AVK       0.356800
     34 H13          4.9520    -0.9300    -4.9670 h1         1 AVK       0.047700
     35 H14          6.4870    -0.9290    -4.0880 h1         1 AVK       0.047700
     36 H15          4.8130    -3.3870    -4.7240 hc         1 AVK       0.060700
     37 H16          6.3480    -3.3870    -3.8440 hc         1 AVK       0.060700
     38 H17          8.1900    -4.1250    -5.4710 hn         1 AVK       0.298700
     39 H18          8.8950    -3.7520    -7.9550 h4         1 AVK       0.173000
     40 H19          7.0190    -2.2350    -9.0010 h4         1 AVK       0.041100
@<TRIPOS>BOND
     1     8     9 ar
     2     8     7 ar
     3     9     4 ar
     4     7     6 ar
     5     4     5 ar
     6     4     3 1
     7     6     5 ar
     8     3    10 ar
     9     3     2 ar
    10    10    11 ar
    11     2     1 1
    12     2    13 ar
    13    11    12 ar
    14    13    12 ar
    15    12    14 1
    16    14    15 1
    17    15    16 1
    18    16    17 1
    19    19    18 1
    20    19    20 1
    21    17    18 1
    22    18    22 2
    23    20    21 2
    24    22    21 1
    25     5    23 1
    26     6    24 1
    27     7    25 1
    28     8    26 1
    29     9    27 1
    30    10    28 1
    31    11    29 1
    32    13    30 1
    33    14    31 1
    34    14    32 1
    35    15    33 1
    36    16    34 1
    37    16    35 1
    38    17    36 1
    39    17    37 1
    40    19    38 1
    41    20    39 1
    42    21    40 1
@<TRIPOS>SUBSTRUCTURE
     1 AVK         1 TEMP              0 ****  ****    0 ROOT
