@<TRIPOS>MOLECULE
molecule
   35    36     1     0     0
SMALL
bcc


@<TRIPOS>ATOM
      1 CAA          0.0000     0.0000     0.0000 c3         1 AVL      -0.079100
      2 CAB          1.5290     0.0000     0.0000 c3         1 AVL      -0.171700
      3 CAC          2.0390     0.0000     1.4420 c3         1 AVL      -0.079100
      4 CAD          2.0320    -1.2310    -0.7100 c          1 AVL       0.622300
      5 OAE          2.2900    -2.2350    -0.0770 o          1 AVL      -0.518100
      6 CAF          2.2030    -1.2170    -2.1120 cc         1 AVL      -0.434800
      7 CAG          1.2770    -1.6680    -3.0790 cd         1 AVL       0.012700
      8 CAH         -0.0010    -2.2290    -2.9840 cd         1 AVL      -0.130000
      9 CAI         -0.6660    -2.5720    -4.1260 cc         1 AVL      -0.095000
     10 CAJ         -0.0540    -2.3560    -5.3680 cc         1 AVL      -0.191000
     11 CAK          1.1820    -1.8130    -5.4350 cd         1 AVL      -0.020300
     12 NAL          1.8520    -1.4670    -4.3010 na         1 AVL       0.208000
     13 NAM          3.1160    -0.9000    -4.0970 nd         1 AVL      -0.573100
     14 CAN          3.3280    -0.7430    -2.8180 cc         1 AVL       0.449600
     15 CAO          4.5710    -0.1580    -2.1990 c3         1 AVL      -0.076000
     16 CAQ          5.7840    -1.0020    -2.5960 c3         1 AVL      -0.086600
     17 CAP          4.7620     1.2760    -2.6970 c3         1 AVL      -0.086600
     18 H1          -0.3610     0.6940     0.7490 hc         1 AVL       0.039867
     19 H2          -0.3610    -0.9960     0.2270 hc         1 AVL       0.039867
     20 H3          -0.3610     0.3020    -0.9760 hc         1 AVL       0.039867
     21 H4           1.8900     0.8850    -0.5110 hc         1 AVL       0.064700
     22 H5           1.8130     0.9530     1.9060 hc         1 AVL       0.039867
     23 H6           1.5550    -0.7950     1.9970 hc         1 AVL       0.039867
     24 H7           3.1110    -0.1580     1.4470 hc         1 AVL       0.039867
     25 H8          -0.4580    -2.3880    -2.0150 ha         1 AVL       0.156000
     26 H9          -1.6570    -3.0070    -4.0720 ha         1 AVL       0.144000
     27 H10         -0.5750    -2.6260    -6.2790 ha         1 AVL       0.154000
     28 H11          1.6440    -1.6510    -6.4010 h4         1 AVL       0.173000
     29 H12          4.4710    -0.1550    -1.1200 hc         1 AVL       0.063700
     30 H13          5.9350    -0.9350    -3.6660 hc         1 AVL       0.042200
     31 H14          5.6110    -2.0340    -2.3190 hc         1 AVL       0.042200
     32 H15          6.6640    -0.6320    -2.0830 hc         1 AVL       0.042200
     33 H16          3.8390     1.8280    -2.5690 hc         1 AVL       0.042200
     34 H17          5.5500     1.7530    -2.1280 hc         1 AVL       0.042200
     35 H18          5.0310     1.2610    -3.7460 hc         1 AVL       0.042200
@<TRIPOS>BOND
     1    16    15 1
     2     5     4 2
     3     3     2 1
     4    15    17 1
     5    15    14 1
     6     4     6 1
     7     4     2 1
     8    14     6 1
     9    14    13 2
    10     6     7 2
    11    13    12 1
    12     2     1 1
    13     7    12 1
    14     7     8 1
    15    12    11 1
    16     8     9 2
    17    11    10 2
    18     9    10 1
    19     1    18 1
    20     1    19 1
    21     1    20 1
    22     2    21 1
    23     3    22 1
    24     3    23 1
    25     3    24 1
    26     8    25 1
    27     9    26 1
    28    10    27 1
    29    11    28 1
    30    15    29 1
    31    16    30 1
    32    16    31 1
    33    16    32 1
    34    17    33 1
    35    17    34 1
    36    17    35 1
@<TRIPOS>SUBSTRUCTURE
     1 AVL         1 TEMP              0 ****  ****    0 ROOT
