@<TRIPOS>MOLECULE
AVL
   35    36     1     0     0
SMALL
bcc


@<TRIPOS>ATOM
      1 CAA         0.4390    0.6960    0.4800 c3        1 AVL     -0.087600
      2 CAB         1.7330    0.0300    0.0510 c3        1 AVL     -0.157700
      3 CAC         2.5520   -0.3660    1.2630 c3        1 AVL     -0.087600
      4 CAD         1.4130   -1.1960   -0.7810 c         1 AVL      0.619300
      5 OAE         0.7130   -2.1070   -0.3120 o         1 AVL     -0.556100
      6 CAF         1.8840   -1.2380   -2.1560 cc        1 AVL     -0.381800
      7 CAG         1.1530   -1.8540   -3.2120 cd        1 AVL      0.001700
      8 CAH        -0.0810   -2.5540   -3.2870 cd        1 AVL     -0.110000
      9 CAI        -0.5140   -3.0120   -4.5040 cc        1 AVL     -0.106000
     10 CAJ         0.2640   -2.7890   -5.6740 cc        1 AVL     -0.176000
     11 CAK         1.4650   -2.1190   -5.6120 cd        1 AVL     -0.044300
     12 NAL         1.9260   -1.6470   -4.3910 na        1 AVL      0.205000
     13 NAM         3.0710   -0.9900   -4.1320 nd        1 AVL     -0.576100
     14 CAN         3.0830   -0.7300   -2.7860 cc        1 AVL      0.428600
     15 CAO         4.2370   -0.0560   -2.1200 c3        1 AVL     -0.083000
     16 CAQ         5.5530   -0.7090   -2.5010 c3        1 AVL     -0.089600
     17 CAP         4.2610    1.4220   -2.4600 c3        1 AVL     -0.089600
     18 H1         -0.1320    1.0480   -0.4120 hc        1 AVL      0.042367
     19 H2         -0.1960   -0.0250    1.0490 hc        1 AVL      0.042367
     20 H3          0.6610    1.5740    1.1320 hc        1 AVL      0.042367
     21 H4          2.3170    0.7640   -0.5720 hc        1 AVL      0.063700
     22 H5          1.9870   -1.1050    1.8820 hc        1 AVL      0.042367
     23 H6          3.5190   -0.8310    0.9540 hc        1 AVL      0.042367
     24 H7          2.7710    0.5330    1.8870 hc        1 AVL      0.042367
     25 H8         -0.6320   -2.7120   -2.3460 ha        1 AVL      0.178000
     26 H9         -1.4640   -3.5610   -4.5950 ha        1 AVL      0.146000
     27 H10        -0.0960   -3.1600   -6.6440 ha        1 AVL      0.154000
     28 H11         2.1030   -1.9270   -6.4920 h4        1 AVL      0.179000
     29 H12         4.1040   -0.1750   -1.0050 hc        1 AVL      0.061700
     30 H13         5.7790   -0.5520   -3.5830 hc        1 AVL      0.042033
     31 H14         6.3800   -0.2620   -1.8980 hc        1 AVL      0.042033
     32 H15         5.5160   -1.8070   -2.3010 hc        1 AVL      0.042033
     33 H16         3.2960    1.9080   -2.1810 hc        1 AVL      0.042033
     34 H17         4.4300    1.5700   -3.5540 hc        1 AVL      0.042033
     35 H18         5.0880    1.9230   -1.9010 hc        1 AVL      0.042033
@<TRIPOS>BOND
     1    1    2 1   
     2    1   18 1   
     3    1   19 1   
     4    1   20 1   
     5    2    3 1   
     6    2    4 1   
     7    2   21 1   
     8    3   22 1   
     9    3   23 1   
    10    3   24 1   
    11    4    5 2   
    12    4    6 1   
    13    6    7 2   
    14    6   14 1   
    15    7    8 1   
    16    7   12 1   
    17    8    9 2   
    18    8   25 1   
    19    9   10 1   
    20    9   26 1   
    21   10   11 2   
    22   10   27 1   
    23   11   12 1   
    24   11   28 1   
    25   12   13 1   
    26   13   14 2   
    27   14   15 1   
    28   15   16 1   
    29   15   17 1   
    30   15   29 1   
    31   16   30 1   
    32   16   31 1   
    33   16   32 1   
    34   17   33 1   
    35   17   34 1   
    36   17   35 1   
@<TRIPOS>SUBSTRUCTURE
     1 AVL         1 TEMP              0 ****  ****    0 ROOT
