@<TRIPOS>MOLECULE
molecule
   46    49     1     0     0
SMALL
bcc


@<TRIPOS>ATOM
      1 O2           0.0000     0.0000     0.0000 o          1 AVM      -0.831800
      2 C3          -0.8680    -0.0060    -6.1850 ca         1 AVM       0.045600
      3 C4          -2.9350     0.6710    -7.1490 c          1 AVM       0.657100
      4 C5          -4.4380     0.7590    -7.0980 c3         1 AVM      -0.172100
      5 C12          3.3480    -0.0010    -1.2800 ca         1 AVM      -0.063000
      6 C13          1.9530    -0.0010    -1.2800 ca         1 AVM      -0.106600
      7 C14          1.2150     0.0000     0.0000 c          1 AVM       0.882200
      8 C15          5.5270     0.0070    -2.4870 cp         1 AVM       0.003000
      9 C17          6.2200     0.0060    -3.7080 ca         1 AVM      -0.117000
     10 C18          7.5790     0.0030    -3.7350 ca         1 AVM      -0.127000
     11 C19          8.3040     0.0020    -2.5310 ca         1 AVM      -0.154300
     12 C20          7.6160     0.0040    -1.2920 ca         1 AVM       0.423600
     13 C21          9.7110    -0.0010    -2.5290 ca         1 AVM      -0.080000
     14 C22         10.3540    -0.0030    -1.3230 ca         1 AVM      -0.276300
     15 C23          9.6180    -0.0010    -0.1420 ca         1 AVM       0.412200
     16 O1           1.8880     0.0000     1.1670 o          1 AVM      -0.831800
     17 N           -2.2670    -0.0050    -6.1930 ns         1 AVM      -0.474100
     18 C            1.9070     0.0040    -6.1860 ca         1 AVM      -0.147000
     19 O           -2.3260     1.2080    -8.0500 o          1 AVM      -0.605100
     20 C1           1.2160     0.0040    -7.3800 ca         1 AVM      -0.122000
     21 C10          3.3450     0.0050    -3.6920 ca         1 AVM      -0.119000
     22 C11          4.0430     0.0040    -2.4860 cp         1 AVM      -0.092000
     23 C16          6.2120     0.0070    -1.2880 ca         1 AVM      -0.166300
     24 C2          -0.1660    -0.0010    -7.3850 ca         1 AVM      -0.144000
     25 C6          -0.1810    -0.0050    -4.9810 ca         1 AVM      -0.151000
     26 C7           1.2110    -0.0000    -4.9780 cp         1 AVM       0.010000
     27 C8           1.9530    -0.0000    -3.6920 cp         1 AVM      -0.083000
     28 C9           1.2570     0.0000    -2.4880 ca         1 AVM      -0.077000
     29 N1           8.3060     0.0030    -0.1480 nb         1 AVM      -0.674000
     30 H4          -4.7340     1.4190    -6.2920 hc         1 AVM       0.059033
     31 H5          -4.8090     1.1480    -8.0390 hc         1 AVM       0.059033
     32 H6          -4.8520    -0.2280    -6.9270 hc         1 AVM       0.059033
     33 H10          3.8900     0.0420    -0.3430 ha         1 AVM       0.163000
     34 H12          5.6660     0.0090    -4.6390 ha         1 AVM       0.133000
     35 H13          8.1020     0.0030    -4.6830 ha         1 AVM       0.122000
     36 H14         10.4010    -0.0050    -3.3630 ha         1 AVM       0.130000
     37 H15         11.4340    -0.0020    -1.2420 ha         1 AVM       0.124000
     38 H16         10.0580    -0.0050     0.8480 h4         1 AVM       0.015100
     39 H3          -2.7720    -0.5360    -5.5110 hn         1 AVM       0.324500
     40 H            2.9910     0.0080    -6.1870 ha         1 AVM       0.129000
     41 H1           1.7590     0.0080    -8.3180 ha         1 AVM       0.121000
     42 H9           3.8860     0.0090    -4.6300 ha         1 AVM       0.114000
     43 H11          5.6690     0.0080    -0.3500 ha         1 AVM       0.175000
     44 H2          -0.7030    -0.0010    -8.3250 ha         1 AVM       0.153000
     45 H7          -0.7260    -0.0080    -4.0450 ha         1 AVM       0.150000
     46 H8           0.1730    -0.0010    -2.4880 ha         1 AVM       0.150000
@<TRIPOS>BOND
     1    19     3 2
     2     3    17 1
     3     3     4 1
     4    17     2 1
     5     2    24 ar
     6     2    25 ar
     7    24    20 ar
     8    25    26 ar
     9    20    18 ar
    10    26    18 ar
    11    26    27 1
    12    10     9 ar
    13    10    11 ar
    14     9     8 ar
    15    27    21 ar
    16    27    28 ar
    17    21    22 ar
    18    28     6 ar
    19    22     8 1
    20    22     5 ar
    21     8    23 ar
    22    11    13 ar
    23    11    12 ar
    24     1     7 1
    25    13    14 ar
    26     6     5 ar
    27     6     7 1
    28     7    16 1
    29    23    12 ar
    30    12    29 ar
    31    14    15 ar
    32    15    29 ar
    33     4    30 1
    34     4    31 1
    35     4    32 1
    36     5    33 1
    37     9    34 1
    38    10    35 1
    39    13    36 1
    40    14    37 1
    41    15    38 1
    42    17    39 1
    43    18    40 1
    44    20    41 1
    45    21    42 1
    46    23    43 1
    47    24    44 1
    48    25    45 1
    49    28    46 1
@<TRIPOS>SUBSTRUCTURE
     1 AVM         1 TEMP              0 ****  ****    0 ROOT
