@<TRIPOS>MOLECULE
AVO
   31    32     1     0     0
SMALL
bcc


@<TRIPOS>ATOM
      1 CAG          0.0000     0.0000     0.0000 c3         1 AVO      -0.014700
      2 CAE          1.5440     0.0000     0.0000 c3         1 AVO      -0.033400
      3 CAF          1.9450     0.0000     1.4910 c3         1 AVO      -0.033400
      4 CAH          0.6090     0.0010     2.2650 c3         1 AVO      -0.014700
      5 N           -0.3740    -0.5810     1.3150 nx         1 AVO       0.026600
      6 CA          -1.7400    -0.1830     1.6820 c3         1 AVO      -0.165500
      7 C           -2.1000    -0.7930     3.0130 c          1 AVO       0.934600
      8 OXT         -3.3090    -0.5640     3.5500 o          1 AVO      -0.811300
      9 O           -1.3020    -1.4880     3.5950 o          1 AVO      -0.811300
     10 CB          -2.7190    -0.6750     0.6140 c3         1 AVO       0.070900
     11 CG          -2.6800    -2.1810     0.5520 cc         1 AVO      -0.252600
     12 CD2         -1.8260    -2.9330    -0.1670 cd         1 AVO      -0.368300
     13 NE2         -2.1190    -4.2230     0.0570 na         1 AVO       0.568900
     14 CE1         -3.1230    -4.2980     0.8860 cc         1 AVO      -0.429600
     15 ND1         -3.5040    -3.0460     1.2210 na         1 AVO       0.545900
     16 HE4         -0.3760    -0.6190    -0.8060 hx         1 AVO       0.085950
     17 HAG         -0.3760     1.0120    -0.0850 hx         1 AVO       0.085950
     18 HAE          1.9190     0.8910    -0.4890 hc         1 AVO       0.050950
     19 HE2          1.9190    -0.8910    -0.4890 hc         1 AVO       0.050950
     20 HE3          2.5140     0.8910     1.7260 hc         1 AVO       0.050950
     21 HAF          2.5140    -0.8910     1.7260 hc         1 AVO       0.050950
     22 HAH          0.6880    -0.6180     3.1510 hx         1 AVO       0.085950
     23 HE5          0.3270     1.0130     2.5260 hx         1 AVO       0.085950
     24 H           -0.2880    -1.5780     1.2920 hn         1 AVO       0.253800
     25 HA          -1.7950     0.8970     1.7530 hx         1 AVO       0.109700
     26 HB2         -3.7210    -0.3500     0.8660 hc         1 AVO       0.064700
     27 HB1         -2.4380    -0.2670    -0.3490 hc         1 AVO       0.064700
     28 HD2         -1.0390    -2.5620    -0.8120 h4         1 AVO       0.184000
     29 H2          -1.6440    -5.0040    -0.3490 hn         1 AVO       0.154700
     30 HE1         -3.5770    -5.2130     1.2470 h5         1 AVO       0.216000
     31 HD1         -4.2490    -2.7970     1.8410 hn         1 AVO       0.193700
@<TRIPOS>BOND
     1     1     2 1   
     2     1     5 1   
     3     1    16 1   
     4     1    17 1   
     5     2     3 1   
     6     2    18 1   
     7     2    19 1   
     8     3     4 1   
     9     3    20 1   
    10     3    21 1   
    11     4     5 1   
    12     4    22 1   
    13     4    23 1   
    14     5     6 1   
    15     5    24 1   
    16     6     7 1   
    17     6    10 1   
    18     6    25 1   
    19     7     8 1   
    20     7     9 1   
    21    10    11 1   
    22    10    26 1   
    23    10    27 1   
    24    11    12 2   
    25    11    15 1   
    26    12    13 1   
    27    12    28 1   
    28    13    14 2   
    29    13    29 1   
    30    14    15 1   
    31    14    30 1   
    32    15    31 1   
@<TRIPOS>SUBSTRUCTURE
     1 AVO         1 TEMP              0 ****  ****    0 ROOT
