@<TRIPOS>MOLECULE
molecule
   31    32     1     0     0
SMALL
bcc


@<TRIPOS>ATOM
      1 CAG          0.0000     0.0000     0.0000 c3         1 AVO       0.106300
      2 CAE          1.5440     0.0000     0.0000 c3         1 AVO      -0.107900
      3 CAF          1.9450     0.0000     1.4910 c3         1 AVO      -0.107900
      4 CAH          0.6090     0.0010     2.2650 c3         1 AVO       0.106300
      5 N           -0.3740    -0.5810     1.3150 nx         1 AVO      -0.648400
      6 CA          -1.7400    -0.1830     1.6820 c3         1 AVO      -0.006500
      7 C           -2.1000    -0.7930     3.0130 c          1 AVO       0.854600
      8 OXT         -3.3090    -0.5640     3.5500 o          1 AVO      -0.769300
      9 O           -1.3020    -1.4880     3.5950 o          1 AVO      -0.769300
     10 CB          -2.7190    -0.6750     0.6140 c3         1 AVO      -0.021100
     11 CG          -2.6800    -2.1810     0.5520 cc         1 AVO      -0.056600
     12 CD2         -1.8260    -2.9330    -0.1670 cd         1 AVO      -0.199300
     13 NE2         -2.1190    -4.2230     0.0570 na         1 AVO      -0.079100
     14 CE1         -3.1230    -4.2980     0.8860 cc         1 AVO      -0.010600
     15 ND1         -3.5040    -3.0460     1.2210 na         1 AVO      -0.083100
     16 HE4         -0.3760    -0.6190    -0.8060 hx         1 AVO       0.109200
     17 HAG         -0.3760     1.0120    -0.0850 hx         1 AVO       0.109200
     18 HAE          1.9190     0.8910    -0.4890 hc         1 AVO       0.085450
     19 HE2          1.9190    -0.8910    -0.4890 hc         1 AVO       0.085450
     20 HE3          2.5140     0.8910     1.7260 hc         1 AVO       0.085450
     21 HAF          2.5140    -0.8910     1.7260 hc         1 AVO       0.085450
     22 HAH          0.6880    -0.6180     3.1510 hx         1 AVO       0.109200
     23 HE5          0.3270     1.0130     2.5260 hx         1 AVO       0.109200
     24 H           -0.2880    -1.5780     1.2920 hn         1 AVO       0.442800
     25 HA          -1.7950     0.8970     1.7530 hx         1 AVO       0.129700
     26 HB2         -3.7210    -0.3500     0.8660 hc         1 AVO       0.104200
     27 HB1         -2.4380    -0.2670    -0.3490 hc         1 AVO       0.104200
     28 HD2         -1.0390    -2.5620    -0.8120 h4         1 AVO       0.212000
     29 H2          -1.6440    -5.0040    -0.3490 hn         1 AVO       0.362700
     30 HE1         -3.5770    -5.2130     1.2470 h5         1 AVO       0.261000
     31 HD1         -4.2490    -2.7970     1.8410 hn         1 AVO       0.393700
@<TRIPOS>BOND
     1     9     7 1
     2     7     8 1
     3     7     6 1
     4    13    12 1
     5    13    14 2
     6    12    11 2
     7     4     3 1
     8     4     5 1
     9    14    15 1
    10     6     5 1
    11     6    10 1
    12    11    15 1
    13    11    10 1
    14     3     2 1
    15     5     1 1
    16     1     2 1
    17     1    16 1
    18     1    17 1
    19     2    18 1
    20     2    19 1
    21     3    20 1
    22     3    21 1
    23     4    22 1
    24     4    23 1
    25     5    24 1
    26     6    25 1
    27    10    26 1
    28    10    27 1
    29    12    28 1
    30    13    29 1
    31    14    30 1
    32    15    31 1
@<TRIPOS>SUBSTRUCTURE
     1 AVO         1 TEMP              0 ****  ****    0 ROOT
