@<TRIPOS>MOLECULE
AVQ
   31    33     1     0     0
SMALL
bcc


@<TRIPOS>ATOM
      1 ClD        -0.0040   -0.1460    0.1220 cl        1 AVQ     -0.073400
      2 CAQ         1.6860   -0.0090    0.0120 ca        1 AVQ      0.032400
      3 CAF         2.4190    0.1010    1.2000 ca        1 AVQ     -0.120000
      4 CAE         3.8050    0.2120    1.1620 ca        1 AVQ     -0.108000
      5 CAO         4.4620    0.2100   -0.0730 ca        1 AVQ      0.013400
      6 ClC         6.1540    0.3420   -0.1280 cl        1 AVQ     -0.081400
      7 CAH         3.7380    0.1000   -1.2610 ca        1 AVQ     -0.101000
      8 CAR         2.3400   -0.0090   -1.2320 ca        1 AVQ     -0.070300
      9 CAI         1.6090   -0.1420   -2.5120 c3        1 AVQ      0.007000
     10 SAM         1.2770    1.5160   -3.0620 ss        1 AVQ     -0.058300
     11 CAS         0.4500    1.2970   -4.5180 cc        1 AVQ      0.513200
     12 NAK         0.1720    0.0340   -5.0790 nc        1 AVQ     -0.387300
     13 NAL        -0.0120    2.3610   -5.2630 nd        1 AVQ     -0.592100
     14 NAU        -0.6000    1.7840   -6.3280 na        1 AVQ     -0.040800
     15 CAT        -0.5000    0.3170   -6.2390 cd        1 AVQ      0.448500
     16 NAJ        -1.0270   -0.5140   -7.2100 nd        1 AVQ     -0.657000
     17 CAN        -1.6350    0.0760   -8.2410 cc        1 AVQ      0.498600
     18 CAA        -2.2290   -0.7620   -9.3300 c3        1 AVQ     -0.159400
     19 CAG        -1.7700    1.4960   -8.3930 cc        1 AVQ     -0.356300
     20 CAP        -1.2440    2.3430   -7.4220 cd        1 AVQ      0.261800
     21 OAB        -1.3860    3.6920   -7.5930 oh        1 AVQ     -0.476100
     22 HAF         1.8970    0.1000    2.1700 ha        1 AVQ      0.155000
     23 HAE         4.3770    0.2990    2.0990 ha        1 AVQ      0.154000
     24 HAH         4.2610    0.0980   -2.2310 ha        1 AVQ      0.159000
     25 HAI1        2.2270   -0.6880   -3.2690 h1        1 AVQ      0.100200
     26 HAI2        0.6570   -0.7190   -2.3880 h1        1 AVQ      0.100200
     27 HAB        -0.9860    4.1840   -6.8550 ho        1 AVQ      0.463000
     28 HAA1       -2.0890   -1.8570   -9.1510 hc        1 AVQ      0.066033
     29 HAA2       -1.7460   -0.4920  -10.3010 hc        1 AVQ      0.066033
     30 HAA3       -3.3240   -0.5460   -9.3990 hc        1 AVQ      0.066033
     31 HAG        -2.2830    1.9220   -9.2640 ha        1 AVQ      0.178000
@<TRIPOS>BOND
     1    1    2 1   
     2    2    3 ar  
     3    2    8 ar  
     4    3    4 ar  
     5    3   22 1   
     6    4    5 ar  
     7    4   23 1   
     8    5    6 1   
     9    5    7 ar  
    10    7    8 ar  
    11    7   24 1   
    12    8    9 1   
    13    9   10 1   
    14    9   25 1   
    15    9   26 1   
    16   10   11 1   
    17   11   12 1   
    18   11   13 2   
    19   12   15 2   
    20   13   14 1   
    21   14   15 1   
    22   14   20 1   
    23   15   16 1   
    24   16   17 2   
    25   17   18 1   
    26   17   19 1   
    27   18   28 1   
    28   18   29 1   
    29   18   30 1   
    30   19   20 2   
    31   19   31 1   
    32   20   21 1   
    33   21   27 1   
@<TRIPOS>SUBSTRUCTURE
     1 AVQ         1 TEMP              0 ****  ****    0 ROOT
