@<TRIPOS>MOLECULE
AVQ
   31    33     1     0     0
SMALL
bcc


@<TRIPOS>ATOM
      1 CLD        -0.0040   -0.1470    0.1230 cl        1 AVQ     -0.073400
      2 CAQ         1.6860   -0.0110    0.0120 ca        1 AVQ      0.032400
      3 CAF         2.4190    0.0980    1.2000 ca        1 AVQ     -0.120000
      4 CAE         3.8050    0.2070    1.1620 ca        1 AVQ     -0.108000
      5 CAO         4.4620    0.2060   -0.0740 ca        1 AVQ      0.013400
      6 CLC         6.1540    0.3360   -0.1290 cl        1 AVQ     -0.081400
      7 CAH         3.7370    0.0960   -1.2610 ca        1 AVQ     -0.101000
      8 CAR         2.3390   -0.0110   -1.2320 ca        1 AVQ     -0.070300
      9 CAI         1.6080   -0.1440   -2.5120 c3        1 AVQ      0.007000
     10 SAM         1.2750    1.5160   -3.0600 ss        1 AVQ     -0.058300
     11 CAS         0.4480    1.2980   -4.5160 cc        1 AVQ      0.513200
     12 NAK         0.1720    0.0350   -5.0800 nc        1 AVQ     -0.387300
     13 NAL        -0.0140    2.3620   -5.2610 nd        1 AVQ     -0.592100
     14 NAU        -0.6010    1.7850   -6.3270 na        1 AVQ     -0.040800
     15 CAT        -0.5000    0.3190   -6.2390 cd        1 AVQ      0.448500
     16 NAJ        -1.0250   -0.5120   -7.2120 nd        1 AVQ     -0.657000
     17 CAN        -1.6340    0.0790   -8.2420 cc        1 AVQ      0.498600
     18 CAA        -2.2260   -0.7590   -9.3320 c3        1 AVQ     -0.159400
     19 CAG        -1.7700    1.4990   -8.3930 cc        1 AVQ     -0.356300
     20 CAP        -1.2450    2.3460   -7.4200 cd        1 AVQ      0.261800
     21 OAB        -1.3890    3.6950   -7.5890 oh        1 AVQ     -0.476100
     22 HAF         1.8980    0.0970    2.1700 ha        1 AVQ      0.155000
     23 HAE         4.3780    0.2940    2.0980 ha        1 AVQ      0.154000
     24 HAH         4.2600    0.0950   -2.2320 ha        1 AVQ      0.159000
     25 HAI1        0.6560   -0.7200   -2.3880 h1        1 AVQ      0.100200
     26 HAI2        2.2260   -0.6880   -3.2700 h1        1 AVQ      0.100200
     27 HAB        -0.9900    4.1860   -6.8510 ho        1 AVQ      0.463000
     28 HAA1       -2.0820   -1.8530   -9.1560 hc        1 AVQ      0.066033
     29 HAA2       -3.3220   -0.5470   -9.3980 hc        1 AVQ      0.066033
     30 HAA3       -1.7460   -0.4840  -10.3040 hc        1 AVQ      0.066033
     31 HAG        -2.2830    1.9250   -9.2630 ha        1 AVQ      0.178000
@<TRIPOS>BOND
     1    1    2 1   
     2    2    3 ar  
     3    2    8 ar  
     4    3    4 ar  
     5    3   22 1   
     6    4    5 ar  
     7    4   23 1   
     8    5    6 1   
     9    5    7 ar  
    10    7    8 ar  
    11    7   24 1   
    12    8    9 1   
    13    9   10 1   
    14    9   25 1   
    15    9   26 1   
    16   10   11 1   
    17   11   12 1   
    18   11   13 2   
    19   12   15 2   
    20   13   14 1   
    21   14   15 1   
    22   14   20 1   
    23   15   16 1   
    24   16   17 2   
    25   17   18 1   
    26   17   19 1   
    27   18   28 1   
    28   18   29 1   
    29   18   30 1   
    30   19   20 2   
    31   19   31 1   
    32   20   21 1   
    33   21   27 1   
@<TRIPOS>SUBSTRUCTURE
     1 AVQ         1 TEMP              0 ****  ****    0 ROOT
