@<TRIPOS>MOLECULE
molecule
   31    33     1     0     0
SMALL
bcc


@<TRIPOS>ATOM
      1 ClD          0.0000     0.0000     0.0000 cl         1 AVQ      -0.088400
      2 CAQ          1.7360     0.0000     0.0000 ca         1 AVQ       0.039400
      3 CAF          2.4270     0.0000     1.1990 ca         1 AVQ      -0.114000
      4 CAE          3.8090     0.0000     1.2000 ca         1 AVQ      -0.108000
      5 CAO          4.5010    -0.0000     0.0010 ca         1 AVQ       0.027400
      6 ClC          6.2380     0.0010     0.0020 cl         1 AVQ      -0.097400
      7 CAH          3.8100    -0.0020    -1.1970 ca         1 AVQ      -0.097000
      8 CAR          2.4280    -0.0070    -1.1980 ca         1 AVQ      -0.068300
      9 CAI          1.6750    -0.0130    -2.5020 c3         1 AVQ       0.034000
     10 SAM          1.3730     1.6940    -3.0360 ss         1 AVQ      -0.115300
     11 CAS          0.4990     1.4890    -4.5510 cc         1 AVQ       0.594200
     12 NAK          0.1770     0.3190    -5.1010 nc         1 AVQ      -0.455300
     13 NAL          0.0560     2.4670    -5.3130 nd         1 AVQ      -0.576100
     14 NAU         -0.5780     1.8750    -6.4120 na         1 AVQ      -0.003800
     15 CAT         -0.4790     0.5240    -6.2380 cd         1 AVQ       0.475500
     16 NAJ         -1.0020    -0.3140    -7.1400 nd         1 AVQ      -0.680000
     17 CAN         -1.6190     0.1410    -8.2110 cc         1 AVQ       0.503600
     18 CAA         -2.1990    -0.8270    -9.2090 c3         1 AVQ      -0.146400
     19 CAG         -1.7390     1.5130    -8.4260 cc         1 AVQ      -0.353300
     20 CAP         -1.2120     2.3800    -7.5070 cd         1 AVQ       0.253800
     21 OAB         -1.3170     3.7160    -7.6850 oh         1 AVQ      -0.485100
     22 HAF          1.8850     0.0010     2.1370 ha         1 AVQ       0.153000
     23 HAE          4.3510     0.0000     2.1380 ha         1 AVQ       0.152000
     24 HAH          4.3520    -0.0040    -2.1350 ha         1 AVQ       0.157000
     25 HAI1         0.7280    -0.5230    -2.3700 h1         1 AVQ       0.093700
     26 HAI2         2.2600    -0.5280    -3.2550 h1         1 AVQ       0.093700
     27 HAB         -2.1930     3.9940    -7.4720 ho         1 AVQ       0.446000
     28 HAA1        -1.7360    -0.6710   -10.1750 hc         1 AVQ       0.064367
     29 HAA2        -2.0120    -1.8420    -8.8790 hc         1 AVQ       0.064367
     30 HAA3        -3.2670    -0.6660    -9.2900 hc         1 AVQ       0.064367
     31 HAG         -2.2470     1.8880    -9.3060 ha         1 AVQ       0.170000
@<TRIPOS>BOND
     1     1     2 1
     2     2     3 ar
     3     2     8 ar
     4     3     4 ar
     5     4     5 ar
     6     5     6 1
     7     5     7 ar
     8     7     8 ar
     9     8     9 1
    10     9    10 1
    11    10    11 1
    12    11    12 1
    13    11    13 2
    14    12    15 2
    15    13    14 1
    16    14    15 1
    17    14    20 1
    18    15    16 1
    19    16    17 2
    20    17    18 1
    21    17    19 1
    22    19    20 2
    23    20    21 1
    24     3    22 1
    25     4    23 1
    26     7    24 1
    27     9    25 1
    28     9    26 1
    29    21    27 1
    30    18    28 1
    31    18    29 1
    32    18    30 1
    33    19    31 1
@<TRIPOS>SUBSTRUCTURE
     1 AVQ         1 TEMP              0 ****  ****    0 ROOT
