@<TRIPOS>MOLECULE
AVR
   35    36     1     0     0
SMALL
bcc


@<TRIPOS>ATOM
      1 C            0.0000     0.0000     0.0000 c          1 AVR       0.703300
      2 N            1.9970    -1.1990    -0.6930 nz         1 AVR       0.074400
      3 O           -0.6080    -1.0390    -0.1640 o          1 AVR      -0.529100
      4 N1          -1.6910     3.1380    -0.2230 nc         1 AVR      -0.714100
      5 C2          -1.0380     2.1590    -0.7880 cd         1 AVR       0.510600
      6 C3          -0.7070     1.2070     0.1970 cd         1 AVR      -0.544800
      7 C4          -1.2180     1.6950     1.4200 cc         1 AVR      -0.139300
      8 N5          -1.8230     2.8880     1.1480 na         1 AVR       0.751000
      9 C6          -2.4130     3.5970     2.1500 cc         1 AVR      -0.194300
     10 C7          -2.4080     3.1330     3.4220 cd         1 AVR      -0.101000
     11 C8          -1.7920     1.9120     3.7250 cd         1 AVR      -0.043000
     12 C9          -1.1980     1.1950     2.7270 cc         1 AVR      -0.110000
     13 CA           1.5070     0.0000     0.0000 c3         1 AVR      -0.194500
     14 CB           2.0170     0.0000     1.4420 c3         1 AVR      -0.011100
     15 C11         -1.9850     2.0650    -3.0790 c3         1 AVR       0.007400
     16 C12          0.1700     3.2570    -2.6540 c3         1 AVR       0.007400
     17 HN           1.5310    -1.2880    -1.5750 hn         1 AVR       0.228467
     18 HNA          2.9830    -1.1180    -0.8440 hn         1 AVR       0.228467
     19 H6          -2.8920     4.5430     1.9270 h4         1 AVR       0.159000
     20 H7          -2.8810     3.7090     4.2080 ha         1 AVR       0.138000
     21 H8          -1.7870     1.5400     4.7430 ha         1 AVR       0.127000
     22 H9          -0.7180     0.2480     2.9440 ha         1 AVR       0.118000
     23 HA           1.8680     0.8850    -0.5100 hx         1 AVR       0.105700
     24 HB           2.4040     0.9000     0.9790 hc         1 AVR       0.053033
     25 HBA          2.7640    -0.7540     1.6570 hc         1 AVR       0.053033
     26 HBB          1.2530     0.1700     2.1910 hc         1 AVR       0.053033
     27 H10         -0.1520     1.1440    -2.4380 hc         1 AVR      -0.006300
     28 H11         -2.6330     1.2670    -2.7380 hc         1 AVR       0.015200
     29 H11A        -1.7690     1.9310    -4.1320 hc         1 AVR       0.015200
     30 H11B        -2.4770     3.0190    -2.9290 hc         1 AVR       0.015200
     31 H12          0.9750     3.3750    -1.9390 hc         1 AVR       0.015200
     32 H12A        -0.3980     4.1780    -2.7140 hc         1 AVR       0.015200
     33 H12B         0.5840     3.0240    -3.6280 hc         1 AVR       0.015200
     34 HN3          1.8090    -2.0080    -0.1340 hn         1 AVR       0.228467
     35 C10         -0.6960     2.0620    -2.2540 c3         1 AVR      -0.049000
@<TRIPOS>BOND
     1     1     3 2   
     2     1     6 1   
     3     1    13 1   
     4     2    13 1   
     5     2    17 1   
     6     2    18 1   
     7     2    34 1   
     8     4     5 2   
     9     4     8 1   
    10     5     6 1   
    11     5    35 1   
    12     6     7 2   
    13     7     8 1   
    14     7    12 1   
    15     8     9 1   
    16     9    10 2   
    17     9    19 1   
    18    10    11 1   
    19    10    20 1   
    20    11    12 2   
    21    11    21 1   
    22    12    22 1   
    23    13    14 1   
    24    13    23 1   
    25    14    24 1   
    26    14    25 1   
    27    14    26 1   
    28    15    28 1   
    29    15    29 1   
    30    15    30 1   
    31    15    35 1   
    32    16    31 1   
    33    16    32 1   
    34    16    33 1   
    35    16    35 1   
    36    27    35 1   
@<TRIPOS>SUBSTRUCTURE
     1 AVR         1 TEMP              0 ****  ****    0 ROOT
