@<TRIPOS>MOLECULE
molecule
   42    45     1     0     0
SMALL
bcc


@<TRIPOS>ATOM
      1 F27          0.0000     0.0000     0.0000 f          1 AVT      -0.146900
      2 C5           1.3510     0.0000     0.0000 ca         1 AVT       0.127900
      3 C3           2.0270     0.0000     1.1880 ca         1 AVT      -0.151000
      4 C6           2.0420    -0.0050    -1.2110 ca         1 AVT      -0.180000
      5 C4           3.4030    -0.0060    -1.2410 ca         1 AVT      -0.138300
      6 C2           4.1330     0.0000    -0.0390 ca         1 AVT       0.368600
      7 N9           5.4700     0.0000    -0.0590 nb         1 AVT      -0.668000
      8 C10          6.2100     0.0020     1.0290 cp         1 AVT       0.490800
      9 C11          7.6850     0.0030     0.9100 cp         1 AVT      -0.105500
     10 C13          8.3040    -0.6900    -0.1310 ca         1 AVT      -0.097000
     11 C15          9.6770    -0.6870    -0.2370 ca         1 AVT      -0.120000
     12 C16         10.4460     0.0050     0.6900 ca         1 AVT       0.066100
     13 O28         11.8000     0.0010     0.5860 os         1 AVT      -0.159100
     14 O29         12.4510    -1.1020     1.3060 oh         1 AVT      -0.435000
     15 C14          9.8330     0.6960     1.7280 ca         1 AVT      -0.120000
     16 C12          8.4600     0.7020     1.8370 ca         1 AVT      -0.097000
     17 C8           5.5900     0.0030     2.3520 ca         1 AVT       0.129100
     18 N19          6.3080     0.0050     3.4870 nc         1 AVT      -0.703100
     19 C20          5.7370     0.0070     4.6560 cd         1 AVT       0.546900
     20 C22          6.6150     0.0090     5.8810 c3         1 AVT      -0.134400
     21 N18          4.3920     0.0060     4.8290 n          1 AVT      -0.307300
     22 C17          3.5640     0.0030     3.7570 c          1 AVT       0.718100
     23 O21          2.3540     0.0020     3.8890 o          1 AVT      -0.624500
     24 C7           4.1860     0.0020     2.4320 ca         1 AVT      -0.206600
     25 C1           3.4240     0.0000     1.1910 ca         1 AVT      -0.056300
     26 C23          3.8310     0.0070     6.1820 c3         1 AVT      -0.042000
     27 C24          3.6390     1.4290     6.6450 c          1 AVT       0.878600
     28 O25          3.1330     1.6760     7.8630 o          1 AVT      -0.823300
     29 O26          3.9380     2.3470     5.9180 o          1 AVT      -0.823300
     30 H1           1.4830     0.0850     2.1210 ha         1 AVT       0.201000
     31 H2           1.4870    -0.0090    -2.1410 ha         1 AVT       0.134000
     32 H3           3.9230    -0.0100    -2.1910 ha         1 AVT       0.141000
     33 H4           7.7050    -1.2300    -0.8540 ha         1 AVT       0.159000
     34 H5          10.1580    -1.2240    -1.0450 ha         1 AVT       0.138000
     35 H6          13.3840    -1.0530     1.1780 ho         1 AVT       0.402000
     36 H7          10.4360     1.2360     2.4480 ha         1 AVT       0.138000
     37 H8           7.9830     1.2410     2.6470 ha         1 AVT       0.159000
     38 H9           6.4050    -0.8700     6.4780 hc         1 AVT       0.070033
     39 H10          6.4160     0.8990     6.4660 hc         1 AVT       0.070033
     40 H11          7.6550     0.0010     5.5790 hc         1 AVT       0.070033
     41 H12          4.5100    -0.5030     6.8550 h1         1 AVT       0.066700
     42 H13          2.8760    -0.5040     6.1780 h1         1 AVT       0.066700
@<TRIPOS>BOND
     1    14    13 1
     2    13    12 1
     3    12    15 ar
     4    12    11 ar
     5    20    19 1
     6    15    16 ar
     7    11    10 ar
     8    16     9 ar
     9    10     9 ar
    10    19    18 2
    11    19    21 1
    12    18    17 1
    13     9     8 1
    14    26    21 1
    15    26    27 1
    16    21    22 1
    17    17     8 ar
    18    17    24 ar
    19     8     7 ar
    20    27    29 1
    21    27    28 1
    22    22    24 1
    23    22    23 2
    24     7     6 ar
    25    24    25 ar
    26     6    25 ar
    27     6     5 ar
    28    25     3 ar
    29     5     4 ar
    30     3     2 ar
    31     4     2 ar
    32     2     1 1
    33     3    30 1
    34     4    31 1
    35     5    32 1
    36    10    33 1
    37    11    34 1
    38    14    35 1
    39    15    36 1
    40    16    37 1
    41    20    38 1
    42    20    39 1
    43    20    40 1
    44    26    41 1
    45    26    42 1
@<TRIPOS>SUBSTRUCTURE
     1 AVT         1 TEMP              0 ****  ****    0 ROOT
