@<TRIPOS>MOLECULE
AVT
   42    45     1     0     0
SMALL
bcc


@<TRIPOS>ATOM
      1 F27          0.0000     0.0000     0.0000 f          1 AVT      -0.135900
      2 C5           1.3510     0.0000     0.0000 ca         1 AVT       0.100900
      3 C3           2.0270     0.0000     1.1880 ca         1 AVT      -0.133000
      4 C6           2.0420    -0.0050    -1.2110 ca         1 AVT      -0.152000
      5 C4           3.4030    -0.0060    -1.2410 ca         1 AVT      -0.116300
      6 C2           4.1330     0.0000    -0.0390 ca         1 AVT       0.314600
      7 N9           5.4700     0.0000    -0.0590 nb         1 AVT      -0.545000
      8 C10          6.2100     0.0020     1.0290 cp         1 AVT       0.432800
      9 C11          7.6850     0.0030     0.9100 cp         1 AVT      -0.114500
     10 C13          8.3040    -0.6900    -0.1310 ca         1 AVT      -0.076500
     11 C15          9.6770    -0.6870    -0.2370 ca         1 AVT      -0.097500
     12 C16         10.4460     0.0050     0.6900 ca         1 AVT       0.073100
     13 O28         11.8000     0.0010     0.5860 os         1 AVT      -0.148100
     14 O29         12.4510    -1.1020     1.3060 oh         1 AVT      -0.425000
     15 C14          9.8330     0.6960     1.7280 ca         1 AVT      -0.097500
     16 C12          8.4600     0.7020     1.8370 ca         1 AVT      -0.076500
     17 C8           5.5900     0.0030     2.3520 ca         1 AVT       0.102100
     18 N19          6.3080     0.0050     3.4870 nc         1 AVT      -0.600100
     19 C20          5.7370     0.0070     4.6560 cd         1 AVT       0.344900
     20 C22          6.6150     0.0090     5.8810 c3         1 AVT      -0.047400
     21 N18          4.3920     0.0060     4.8290 n          1 AVT       0.146700
     22 C17          3.5640     0.0030     3.7570 c          1 AVT       0.630100
     23 O21          2.3540     0.0020     3.8890 o          1 AVT      -0.667500
     24 C7           4.1860     0.0020     2.4320 ca         1 AVT      -0.225600
     25 C1           3.4240     0.0000     1.1910 ca         1 AVT      -0.033300
     26 C23          3.8310     0.0070     6.1820 c3         1 AVT      -0.134000
     27 C24          3.6390     1.4290     6.6450 c          1 AVT       0.970600
     28 O25          3.1330     1.6760     7.8630 o          1 AVT      -0.873300
     29 O26          3.9380     2.3470     5.9180 o          1 AVT      -0.873300
     30 H1           1.4830     0.0850     2.1210 ha         1 AVT       0.182000
     31 H2           1.4870    -0.0090    -2.1410 ha         1 AVT       0.108000
     32 H3           3.9230    -0.0100    -2.1910 ha         1 AVT       0.109000
     33 H4           7.7050    -1.2300    -0.8540 ha         1 AVT       0.128500
     34 H5          10.1580    -1.2240    -1.0450 ha         1 AVT       0.108500
     35 H6          13.3840    -1.0530     1.1780 ho         1 AVT       0.391000
     36 H7          10.4360     1.2360     2.4480 ha         1 AVT       0.108500
     37 H8           7.9830     1.2410     2.6470 ha         1 AVT       0.128500
     38 H9           6.4050    -0.8700     6.4780 hc         1 AVT       0.032033
     39 H10          6.4160     0.8990     6.4660 hc         1 AVT       0.032033
     40 H11          7.6550     0.0010     5.5790 hc         1 AVT       0.032033
     41 H12          4.5100    -0.5030     6.8550 h1         1 AVT       0.047700
     42 H13          2.8760    -0.5040     6.1780 h1         1 AVT       0.047700
@<TRIPOS>BOND
     1     1     2 1   
     2     2     3 ar  
     3     2     4 ar  
     4     3    25 ar  
     5     3    30 1   
     6     4     5 ar  
     7     4    31 1   
     8     5     6 ar  
     9     5    32 1   
    10     6     7 ar  
    11     6    25 ar  
    12     7     8 ar  
    13     8     9 1   
    14     8    17 ar  
    15     9    10 ar  
    16     9    16 ar  
    17    10    11 ar  
    18    10    33 1   
    19    11    12 ar  
    20    11    34 1   
    21    12    13 1   
    22    12    15 ar  
    23    13    14 1   
    24    14    35 1   
    25    15    16 ar  
    26    15    36 1   
    27    16    37 1   
    28    17    18 1   
    29    17    24 ar  
    30    18    19 2   
    31    19    20 1   
    32    19    21 1   
    33    20    38 1   
    34    20    39 1   
    35    20    40 1   
    36    21    22 1   
    37    21    26 1   
    38    22    23 2   
    39    22    24 1   
    40    24    25 ar  
    41    26    27 1   
    42    26    41 1   
    43    26    42 1   
    44    27    28 1   
    45    27    29 1   
@<TRIPOS>SUBSTRUCTURE
     1 AVT         1 TEMP              0 ****  ****    0 ROOT
