@<TRIPOS>MOLECULE
AVU
   55    58     1     0     0
SMALL
bcc


@<TRIPOS>ATOM
      1 N1           0.0000     0.0000     0.0000 nb         1 AVU      -0.763000
      2 C2           1.3210     0.0000     0.0000 ca         1 AVU       0.660900
      3 N3           2.0270     0.0000     1.1110 nb         1 AVU      -0.655000
      4 C4           1.4260     0.0020     2.2960 ca         1 AVU       0.257800
      5 C5           0.0220     0.0030     2.3490 ca         1 AVU      -0.237200
      6 C6          -0.6880     0.0020     1.1360 ca         1 AVU       0.584200
      7 N6          -2.0720     0.0030     1.1260 nv         1 AVU      -0.504500
      8 N7          -0.3280     0.0030     3.6580 nc         1 AVU      -0.531100
      9 C8           0.7460     0.0030     4.3930 cd         1 AVU       0.286700
     10 N9           1.8540     0.0010     3.5990 na         1 AVU       0.230000
     11 PA           4.6350    -1.9020     9.4210 p5         1 AVU       0.949800
     12 PB           4.1170    -4.5240    10.7020 p5         1 AVU       0.952800
     13 C1'          3.2470     0.0000     4.0540 c3         1 AVU       0.128800
     14 O1A          3.4730    -1.2960    10.1080 o          1 AVU      -0.671500
     15 O1B          2.8730    -4.0430    11.3420 o          1 AVU      -0.671500
     16 C1R          4.3950   -10.2030     9.2210 c3         1 AVU       0.178400
     17 C2'          3.7740     1.4470     4.1780 c3         1 AVU       0.116100
     18 O2'          4.5330     1.8040     3.0190 oh         1 AVU      -0.549800
     19 O2A          5.9960    -1.3900    10.1140 o          1 AVU      -0.671500
     20 O2B          5.2900    -4.6030    11.8020 o          1 AVU      -0.671500
     21 C2R          3.1410   -10.7280     9.9450 c3         1 AVU       0.092600
     22 F2R          3.4810   -11.7530    10.8330 f          1 AVU      -0.244300
     23 C3'          4.6800     1.4120     5.4280 c3         1 AVU       0.129100
     24 O3'          6.0260     1.7450     5.0810 oh         1 AVU      -0.556800
     25 O3A          4.5470    -3.5060     9.5320 os         1 AVU      -0.487800
     26 C3R          2.6060    -9.4970    10.7180 c3         1 AVU       0.126100
     27 O3R          1.1800    -9.4290    10.6440 oh         1 AVU      -0.571800
     28 C4'          4.5930    -0.0520     5.9130 c3         1 AVU       0.145100
     29 O4'          3.3380    -0.5400     5.3900 os         1 AVU      -0.364600
     30 C4R          3.2570    -8.3210     9.9450 c3         1 AVU       0.151100
     31 O4R          4.5640    -8.8270     9.6010 os         1 AVU      -0.360600
     32 C5'          4.5910    -0.1070     7.4420 c3         1 AVU       0.312400
     33 O5'          4.6270    -1.4690     7.8700 os         1 AVU      -0.499200
     34 C5R          3.3750    -7.0880    10.8420 c3         1 AVU       0.313400
     35 O5R          3.8680    -5.9870    10.0760 os         1 AVU      -0.501200
     36 H2           1.8420    -0.0020    -0.9500 h5         1 AVU      -0.014900
     37 HN6         -2.5780     0.0010     1.9900 hn         1 AVU       0.270800
     38 HN6A        -2.5660     0.0040     0.2560 hn         1 AVU       0.270800
     39 H8           0.7580     0.0020     5.4770 h5         1 AVU       0.060800
     40 H1'          3.8700    -0.5700     3.3760 h2         1 AVU       0.064700
     41 H2'          2.9520     2.1370     4.3270 h1         1 AVU       0.004700
     42 HO2'         4.3380     2.6940     2.7780 ho         1 AVU       0.376000
     43 H2R          2.4060   -11.0690     9.2260 h1         1 AVU       0.033700
     44 H3'          4.3010     2.0840     6.1880 h1         1 AVU       0.017700
     45 HO3'         6.2770     2.5400     5.5230 ho         1 AVU       0.377000
     46 H3R          2.9450    -9.5140    11.7470 h1         1 AVU       0.032700
     47 HO3R         0.8070    -9.7890    11.4310 ho         1 AVU       0.380000
     48 H4'          5.4170    -0.6300     5.5110 h1         1 AVU       0.044700
     49 H4R          2.6900    -8.0960     9.0500 h1         1 AVU       0.029700
     50 H5'          3.6920     0.3660     7.8190 h1         1 AVU      -0.014800
     51 H5'A         5.4610     0.4140     7.8240 h1         1 AVU      -0.014800
     52 H5R          4.0590    -7.2970    11.6560 h1         1 AVU      -0.013800
     53 H5RA         2.4000    -6.8400    11.2450 h1         1 AVU      -0.013800
     54 H1R          5.2620   -10.7770     9.5250 h1         1 AVU       0.003700
     55 H1RA         4.2560   -10.2730     8.1490 h1         1 AVU       0.003700
@<TRIPOS>BOND
     1     1     2 ar  
     2     1     6 ar  
     3     2     3 ar  
     4     2    36 1   
     5     3     4 ar  
     6     4     5 ar  
     7     4    10 1   
     8     5     6 ar  
     9     5     8 1   
    10     6     7 1   
    11     7    37 1   
    12     7    38 1   
    13     8     9 2   
    14     9    10 1   
    15     9    39 1   
    16    10    13 1   
    17    11    14 1   
    18    11    19 1   
    19    11    25 1   
    20    11    33 1   
    21    12    15 1   
    22    12    20 1   
    23    12    25 1   
    24    12    35 1   
    25    13    17 1   
    26    13    29 1   
    27    13    40 1   
    28    16    21 1   
    29    16    31 1   
    30    16    54 1   
    31    16    55 1   
    32    17    18 1   
    33    17    23 1   
    34    17    41 1   
    35    18    42 1   
    36    21    22 1   
    37    21    26 1   
    38    21    43 1   
    39    23    24 1   
    40    23    28 1   
    41    23    44 1   
    42    24    45 1   
    43    26    27 1   
    44    26    30 1   
    45    26    46 1   
    46    27    47 1   
    47    28    29 1   
    48    28    32 1   
    49    28    48 1   
    50    30    31 1   
    51    30    34 1   
    52    30    49 1   
    53    32    33 1   
    54    32    50 1   
    55    32    51 1   
    56    34    35 1   
    57    34    52 1   
    58    34    53 1   
@<TRIPOS>SUBSTRUCTURE
     1 AVU         1 TEMP              0 ****  ****    0 ROOT
