@<TRIPOS>MOLECULE
molecule
   55    58     1     0     0
SMALL
bcc


@<TRIPOS>ATOM
      1 N1           0.0000     0.0000     0.0000 nb         1 AVU      -0.852000
      2 C2           1.3210     0.0000     0.0000 ca         1 AVU       0.717900
      3 N3           2.0270     0.0000     1.1110 nb         1 AVU      -0.774000
      4 C4           1.4260     0.0020     2.2960 ca         1 AVU       0.467800
      5 C5           0.0220     0.0030     2.3490 ca         1 AVU      -0.205200
      6 C6          -0.6880     0.0020     1.1360 ca         1 AVU       0.776200
      7 N6          -2.0720     0.0030     1.1260 nv         1 AVU      -0.995500
      8 N7          -0.3280     0.0030     3.6580 nc         1 AVU      -0.614100
      9 C8           0.7460     0.0030     4.3930 cd         1 AVU       0.460700
     10 N9           1.8540     0.0010     3.5990 na         1 AVU      -0.240000
     11 PA           4.6350    -1.9020     9.4210 p5         1 AVU       1.431800
     12 PB           4.1170    -4.5240    10.7020 p5         1 AVU       1.434800
     13 C1'          3.2470     0.0000     4.0540 c3         1 AVU       0.244800
     14 O1A          3.4730    -1.2960    10.1080 o          1 AVU      -0.833000
     15 O1B          2.8730    -4.0430    11.3420 o          1 AVU      -0.834000
     16 C1R          4.3950   -10.2030     9.2210 c3         1 AVU       0.101400
     17 C2'          3.7740     1.4470     4.1780 c3         1 AVU       0.079100
     18 O2'          4.5330     1.8040     3.0190 oh         1 AVU      -0.570800
     19 O2A          5.9960    -1.3900    10.1140 o          1 AVU      -0.833000
     20 O2B          5.2900    -4.6030    11.8020 o          1 AVU      -0.834000
     21 C2R          3.1410   -10.7280     9.9450 c3         1 AVU       0.091600
     22 F2R          3.4810   -11.7530    10.8330 f          1 AVU      -0.259300
     23 C3'          4.6800     1.4120     5.4280 c3         1 AVU       0.089100
     24 O3'          6.0260     1.7450     5.0810 oh         1 AVU      -0.576800
     25 O3A          4.5470    -3.5060     9.5320 os         1 AVU      -0.715800
     26 C3R          2.6060    -9.4970    10.7180 c3         1 AVU       0.084100
     27 O3R          1.1800    -9.4290    10.6440 oh         1 AVU      -0.591800
     28 C4'          4.5930    -0.0520     5.9130 c3         1 AVU       0.122100
     29 O4'          3.3380    -0.5400     5.3900 os         1 AVU      -0.380600
     30 C4R          3.2570    -8.3210     9.9450 c3         1 AVU       0.130100
     31 O4R          4.5640    -8.8270     9.6010 os         1 AVU      -0.370600
     32 C5'          4.5910    -0.1070     7.4420 c3         1 AVU       0.240400
     33 O5'          4.6270    -1.4690     7.8700 os         1 AVU      -0.597200
     34 C5R          3.3750    -7.0880    10.8420 c3         1 AVU       0.242400
     35 O5R          3.8680    -5.9870    10.0760 os         1 AVU      -0.601200
     36 H2           1.8420    -0.0020    -0.9500 h5         1 AVU       0.049100
     37 HN6         -2.5780     0.0010     1.9900 hn         1 AVU       0.443300
     38 HN6A        -2.5660     0.0040     0.2560 hn         1 AVU       0.443300
     39 H8           0.7580     0.0020     5.4770 h5         1 AVU       0.109800
     40 H1'          3.8700    -0.5700     3.3760 h2         1 AVU       0.105700
     41 H2'          2.9520     2.1370     4.3270 h1         1 AVU       0.043700
     42 HO2'         4.3380     2.6940     2.7780 ho         1 AVU       0.393000
     43 H2R          2.4060   -11.0690     9.2260 h1         1 AVU       0.063700
     44 H3'          4.3010     2.0840     6.1880 h1         1 AVU       0.052700
     45 HO3'         6.2770     2.5400     5.5230 ho         1 AVU       0.395000
     46 H3R          2.9450    -9.5140    11.7470 h1         1 AVU       0.067700
     47 HO3R         0.8070    -9.7890    11.4310 ho         1 AVU       0.397000
     48 H4'          5.4170    -0.6300     5.5110 h1         1 AVU       0.085700
     49 H4R          2.6900    -8.0960     9.0500 h1         1 AVU       0.069700
     50 H5'          3.6920     0.3660     7.8190 h1         1 AVU       0.037700
     51 H5'A         5.4610     0.4140     7.8240 h1         1 AVU       0.037700
     52 H5R          4.0590    -7.2970    11.6560 h1         1 AVU       0.039200
     53 H5RA         2.4000    -6.8400    11.2450 h1         1 AVU       0.039200
     54 H1R          5.2620   -10.7770     9.5250 h1         1 AVU       0.046200
     55 H1RA         4.2560   -10.2730     8.1490 h1         1 AVU       0.046200
@<TRIPOS>BOND
     1     6     1 ar
     2     1     2 ar
     3     3     2 ar
     4     2    36 1
     5     4     3 ar
     6    10     4 1
     7     5     4 ar
     8     8     5 1
     9     5     6 ar
    10     7     6 1
    11     7    37 1
    12     7    38 1
    13     9     8 2
    14     9    10 1
    15     9    39 1
    16    10    13 1
    17    25    11 1
    18    14    11 1
    19    33    11 1
    20    11    19 1
    21    35    12 1
    22    25    12 1
    23    15    12 1
    24    12    20 1
    25    17    13 1
    26    13    29 1
    27    13    40 1
    28    16    21 1
    29    16    31 1
    30    16    54 1
    31    16    55 1
    32    18    17 1
    33    17    23 1
    34    17    41 1
    35    18    42 1
    36    21    22 1
    37    21    26 1
    38    21    43 1
    39    24    23 1
    40    23    28 1
    41    23    44 1
    42    24    45 1
    43    27    26 1
    44    26    30 1
    45    26    46 1
    46    27    47 1
    47    28    29 1
    48    28    32 1
    49    28    48 1
    50    31    30 1
    51    30    34 1
    52    30    49 1
    53    33    32 1
    54    32    50 1
    55    32    51 1
    56    34    35 1
    57    34    52 1
    58    34    53 1
@<TRIPOS>SUBSTRUCTURE
     1 AVU         1 TEMP              0 ****  ****    0 ROOT
