@<TRIPOS>MOLECULE
AVV
   56    59     1     0     0
SMALL
bcc


@<TRIPOS>ATOM
      1 PA         -1.7120    0.0580    0.8430 p5        1 AVV      1.629800
      2 PN         -0.8200   -2.9950    0.2770 p5        1 AVV      1.625800
      3 F1A        -6.0770    8.8960   -3.9330 f         1 AVV     -0.217200
      4 N1A        -6.7540    8.5510   -1.7560 nb        1 AVV     -0.818000
      5 O1A        -0.7480    1.0340    0.2780 o         1 AVV     -0.890500
      6 O1N         0.4160   -3.3170    1.0070 o         1 AVV     -0.886500
      7 C2A        -5.9870    8.1150   -2.8200 ca        1 AVV      0.866200
      8 O2A        -2.2940    0.2290    2.1830 o         1 AVV     -0.890500
      9 O2N        -1.9840   -3.9110    0.2410 o         1 AVV     -0.886500
     10 O3         -1.2750   -1.4650    0.5590 os        1 AVV     -0.805800
     11 N3A        -5.1650    7.0280   -2.9290 nb        1 AVV     -0.723000
     12 C4A        -5.1340    6.2870   -1.7800 ca        1 AVV      0.463800
     13 C5A        -5.8880    6.6260   -0.5740 ca        1 AVV     -0.226200
     14 C6A        -6.6900    7.8090   -0.6080 ca        1 AVV      0.744200
     15 N6A        -7.3540    8.2260    0.5330 nh        1 AVV     -0.942500
     16 N7A        -5.6620    5.6620    0.4180 nc        1 AVV     -0.570100
     17 C8A        -4.8140    4.7820   -0.1420 cd        1 AVV      0.443700
     18 N9A        -4.4390    5.1130   -1.4660 na        1 AVV     -0.256000
     19 C1'A       -3.5960    4.3340   -2.3650 c3        1 AVV      0.211800
     20 C1'N       -1.4000   -6.4340   -4.2900 c3        1 AVV      0.102400
     21 C2'A       -2.0660    4.4560   -2.0470 c3        1 AVV      0.109100
     22 O2'A       -1.3870    4.7520   -3.2440 oh        1 AVV     -0.599800
     23 C2'N       -2.2420   -6.8510   -3.0740 c3        1 AVV      0.109100
     24 O2'N       -3.5540   -7.1940   -3.4670 oh        1 AVV     -0.618800
     25 C3'A       -1.7000    3.1010   -1.4040 c3        1 AVV      0.122100
     26 O3'A       -0.5440    2.6060   -2.0380 oh        1 AVV     -0.649800
     27 C3'N       -2.1400   -5.6600   -2.0920 c3        1 AVV      0.121100
     28 O3'N       -3.4360   -5.1600   -1.8550 oh        1 AVV     -0.657800
     29 C4'A       -2.9100    2.1790   -1.6570 c3        1 AVV      0.055100
     30 O4'A       -3.9520    2.9620   -2.2830 os        1 AVV     -0.420600
     31 C4'N       -1.2600   -4.6130   -2.8080 c3        1 AVV      0.071100
     32 O4'N       -0.6990   -5.2350   -3.9820 os        1 AVV     -0.436600
     33 C5'A       -3.4680    1.5130   -0.3830 c3        1 AVV      0.213400
     34 O5'A       -2.9860    0.2260   -0.2450 os        1 AVV     -0.568200
     35 C5'N       -0.0900   -4.0870   -1.9530 c3        1 AVV      0.215400
     36 O5'N       -0.4170   -2.8870   -1.3430 os        1 AVV     -0.579200
     37 HAN6       -7.4650    7.5430    1.2460 hn        1 AVV      0.427300
     38 HANA       -8.0740    8.9010    0.4370 hn        1 AVV      0.427300
     39 HC1'       -3.8180    4.6680   -3.4210 h2        1 AVV      0.108700
     40 HC1B       -2.0530   -6.2460   -5.1820 h1        1 AVV      0.027700
     41 HC2'       -1.8420    5.3130   -1.3590 h1        1 AVV      0.076700
     42 HO2'       -1.0620    3.9210   -3.6190 ho        1 AVV      0.433000
     43 HC2A       -1.8290   -7.7840   -2.6060 h1        1 AVV      0.054700
     44 HO2A       -4.1010   -6.3990   -3.4070 ho        1 AVV      0.428000
     45 HC3'       -1.5100    3.2290   -0.3040 h1        1 AVV      0.095700
     46 HO3'       -0.1990    1.8940   -1.4590 ho        1 AVV      0.501000
     47 HC3A       -1.6740   -5.9890   -1.1240 h1        1 AVV      0.082700
     48 HO3A       -3.3690   -4.5870   -1.0640 ho        1 AVV      0.495000
     49 HC4'       -2.6490    1.3800   -2.4060 h1        1 AVV      0.103700
     50 HC4A       -1.8910   -3.7490   -3.1520 h1        1 AVV      0.078700
     51 HC5'       -3.2040    2.1290    0.5240 h1        1 AVV      0.013200
     52 HC5A       -4.5900    1.4640   -0.4820 h1        1 AVV      0.013200
     53 HC5B        0.2030   -4.8530   -1.1830 h1        1 AVV      0.019200
     54 HC5C        0.7850   -3.9050   -2.6400 h1        1 AVV      0.019200
     55 HC8        -4.4260    3.8650    0.3350 h5        1 AVV      0.107800
     56 HC1A       -0.6240   -7.1980   -4.5460 h1        1 AVV      0.027700
@<TRIPOS>BOND
     1    1    5 1   
     2    1    8 1   
     3    1   10 1   
     4    1   34 1   
     5    2    6 1   
     6    2    9 1   
     7    2   10 1   
     8    2   36 1   
     9    3    7 1   
    10    4    7 ar  
    11    4   14 ar  
    12    7   11 ar  
    13   11   12 ar  
    14   12   13 ar  
    15   12   18 1   
    16   13   14 ar  
    17   13   16 1   
    18   14   15 1   
    19   15   37 1   
    20   15   38 1   
    21   16   17 2   
    22   17   18 1   
    23   17   55 1   
    24   18   19 1   
    25   19   21 1   
    26   19   30 1   
    27   19   39 1   
    28   20   23 1   
    29   20   32 1   
    30   20   40 1   
    31   20   56 1   
    32   21   22 1   
    33   21   25 1   
    34   21   41 1   
    35   22   42 1   
    36   23   24 1   
    37   23   27 1   
    38   23   43 1   
    39   24   44 1   
    40   25   26 1   
    41   25   29 1   
    42   25   45 1   
    43   26   46 1   
    44   27   28 1   
    45   27   31 1   
    46   27   47 1   
    47   28   48 1   
    48   29   30 1   
    49   29   33 1   
    50   29   49 1   
    51   31   32 1   
    52   31   35 1   
    53   31   50 1   
    54   33   34 1   
    55   33   51 1   
    56   33   52 1   
    57   35   36 1   
    58   35   53 1   
    59   35   54 1   
@<TRIPOS>SUBSTRUCTURE
     1 AVV         1 TEMP              0 ****  ****    0 ROOT
