@<TRIPOS>MOLECULE
AVW
   55    58     1     0     0
SMALL
bcc


@<TRIPOS>ATOM
      1 PA           0.0000     0.0000     0.0000 p5         1 AVW       0.950800
      2 PN          -0.1360    -2.8740    -0.7140 p5         1 AVW       0.953800
      3 N1A         -7.0160     7.8850    -0.8510 nb         1 AVW      -0.765000
      4 O1A          1.4800     0.0000     0.0000 o          1 AVW      -0.672000
      5 O1N          1.3360    -3.0030    -0.6250 o          1 AVW      -0.673000
      6 C2A         -5.9950     8.0360    -1.6750 ca         1 AVW       0.656900
      7 O2A         -0.5370     0.0000     1.5170 o          1 AVW      -0.672000
      8 O2N         -0.8150    -3.5640     0.5720 o          1 AVW      -0.673000
      9 O3          -0.5350    -1.3150    -0.7590 os         1 AVW      -0.487800
     10 N3A         -4.9600     7.2230    -1.6750 nb         1 AVW      -0.651000
     11 C4A         -4.9030     6.1990    -0.8280 ca         1 AVW       0.255800
     12 C5A         -5.9640     5.9960     0.0710 ca         1 AVW      -0.236200
     13 C6A         -7.0470     6.8920     0.0320 ca         1 AVW       0.582200
     14 N6A         -8.1210     6.7410     0.8910 nv         1 AVW      -0.504500
     15 N7A         -5.6590     4.9030     0.8080 nc         1 AVW      -0.531100
     16 C8A         -4.5050     4.4330     0.4300 cd         1 AVW       0.287700
     17 N9A         -3.9990     5.1990    -0.5770 na         1 AVW       0.231000
     18 C1'A        -2.7230     4.9910    -1.2670 c3         1 AVW       0.134800
     19 C1'N        -0.6240    -5.4380    -5.9770 c3         1 AVW       0.176400
     20 C2'A        -1.6090     5.8560    -0.6250 c3         1 AVW       0.121100
     21 O2'A        -1.5890     7.1670    -1.1930 oh         1 AVW      -0.552800
     22 C2'N        -0.9280    -6.8840    -5.5400 c3         1 AVW       0.106600
     23 F2'N        -2.2190    -7.2530    -5.9350 f          1 AVW      -0.230300
     24 C3'A        -0.3300     5.0700    -1.0040 c3         1 AVW       0.125100
     25 O3'A         0.2850     5.6430    -2.1610 oh         1 AVW      -0.566800
     26 C3'N        -0.8230    -6.8440    -3.9960 c3         1 AVW       0.126100
     27 O3'N        -1.8620    -7.6190    -3.3940 oh         1 AVW      -0.554800
     28 C4'A        -0.8370     3.6480    -1.3120 c3         1 AVW       0.137100
     29 O4'A        -2.2540     3.6390    -1.0720 os         1 AVW      -0.362600
     30 C4'N        -1.0140    -5.3360    -3.6970 c3         1 AVW       0.146100
     31 O4'N        -0.3280    -4.6860    -4.7890 os         1 AVW      -0.363600
     32 C5'A        -0.1470     2.6390    -0.3900 c3         1 AVW       0.308400
     33 O5'A        -0.5360     1.3140    -0.7590 os         1 AVW      -0.498200
     34 C5'N        -0.3690    -4.9660    -2.3590 c3         1 AVW       0.313400
     35 O5'N        -0.6590    -3.6010    -2.0520 os         1 AVW      -0.500200
     36 HAN6        -8.8860     7.3850     0.8540 hn         1 AVW       0.270800
     37 HANA        -8.1320     5.9890     1.5510 hn         1 AVW       0.270800
     38 HC1'        -2.8130     5.2130    -2.3240 h2         1 AVW       0.060700
     39 HC1A        -1.4890    -5.0150    -6.4730 h1         1 AVW       0.004200
     40 HC1B         0.2310    -5.4270    -6.6420 h1         1 AVW       0.004200
     41 HC2'        -1.7280     5.8960     0.4510 h1         1 AVW       0.018700
     42 HO2'        -1.2950     7.7860    -0.5450 ho         1 AVW       0.376000
     43 HC2A        -0.1910    -7.5640    -5.9510 h1         1 AVW       0.010700
     44 HC3'         0.3620     5.0510    -0.1700 h1         1 AVW       0.019700
     45 HO3'         1.1870     5.8420    -1.9710 ho         1 AVW       0.381000
     46 HC3A         0.1550    -7.1780    -3.6710 h1         1 AVW       0.021700
     47 HO3A        -1.5150    -8.4520    -3.1230 ho         1 AVW       0.374000
     48 HC4'        -0.6380     3.4040    -2.3480 h1         1 AVW       0.043700
     49 HC4A        -2.0660    -5.0780    -3.7040 h1         1 AVW       0.036700
     50 HC5'         0.9270     2.7400    -0.4840 h1         1 AVW      -0.017300
     51 HC5A        -0.4400     2.8290     0.6350 h1         1 AVW      -0.017300
     52 HC5B        -0.7660    -5.6040    -1.5790 h1         1 AVW      -0.015300
     53 HC5C         0.7030    -5.1010    -2.4260 h1         1 AVW      -0.015300
     54 HC2         -6.0110     8.8590    -2.3790 h5         1 AVW      -0.015900
     55 HC8         -4.0200     3.5620     0.8530 h5         1 AVW       0.068800
@<TRIPOS>BOND
     1     1     4 1   
     2     1     7 1   
     3     1     9 1   
     4     1    33 1   
     5     2     5 1   
     6     2     8 1   
     7     2     9 1   
     8     2    35 1   
     9     3     6 ar  
    10     3    13 ar  
    11     6    10 ar  
    12     6    54 1   
    13    10    11 ar  
    14    11    12 ar  
    15    11    17 1   
    16    12    13 ar  
    17    12    15 1   
    18    13    14 1   
    19    14    36 1   
    20    14    37 1   
    21    15    16 2   
    22    16    17 1   
    23    16    55 1   
    24    17    18 1   
    25    18    20 1   
    26    18    29 1   
    27    18    38 1   
    28    19    22 1   
    29    19    31 1   
    30    19    39 1   
    31    19    40 1   
    32    20    21 1   
    33    20    24 1   
    34    20    41 1   
    35    21    42 1   
    36    22    23 1   
    37    22    26 1   
    38    22    43 1   
    39    24    25 1   
    40    24    28 1   
    41    24    44 1   
    42    25    45 1   
    43    26    27 1   
    44    26    30 1   
    45    26    46 1   
    46    27    47 1   
    47    28    29 1   
    48    28    32 1   
    49    28    48 1   
    50    30    31 1   
    51    30    34 1   
    52    30    49 1   
    53    32    33 1   
    54    32    50 1   
    55    32    51 1   
    56    34    35 1   
    57    34    52 1   
    58    34    53 1   
@<TRIPOS>SUBSTRUCTURE
     1 AVW         1 TEMP              0 ****  ****    0 ROOT
