@<TRIPOS>MOLECULE
molecule
   27    29     1     0     0
SMALL
bcc


@<TRIPOS>ATOM
      1 C1           0.0000     0.0000     0.0000 ca         1 AVX      -0.081000
      2 C2           1.3930     0.0000     0.0000 ca         1 AVX      -0.102500
      3 C3           2.0870     0.0000     1.2080 ca         1 AVX      -0.087000
      4 C4           1.3940     0.0020     2.4020 ca         1 AVX      -0.007900
      5 C5           0.0070     0.0020     2.4040 ca         1 AVX       0.073100
      6 C6          -0.6910     0.0020     1.1990 ca         1 AVX       0.048100
      7 O7          -2.0290     0.0030     1.4690 os         1 AVX      -0.322900
      8 C8          -2.1430     0.4170     2.8440 c3         1 AVX       0.330200
      9 O9          -0.8940     0.0020     3.4300 os         1 AVX      -0.313900
     10 C10          2.1360    -0.0020    -1.2850 cc         1 AVX       0.393800
     11 N11          1.6010    -0.0040    -2.4870 nd         1 AVX      -0.503800
     12 N12          2.6360    -0.0050    -3.4300 na         1 AVX       0.055400
     13 C13          3.8170    -0.0050    -2.7590 cd         1 AVX       0.168300
     14 C14          3.5370     0.0030    -1.4290 cc         1 AVX      -0.343300
     15 Br15         2.3400     0.0030     4.0410 br         1 AVX      -0.077100
     16 C16          2.4740    -0.0070    -4.8860 c3         1 AVX       0.064600
     17 N17          5.0860    -0.0070    -3.3300 nv         1 AVX      -0.959200
     18 H1          -0.5420    -0.0000    -0.9380 ha         1 AVX       0.165000
     19 H3           3.1710    -0.0000     1.2100 ha         1 AVX       0.157000
     20 H8          -2.9640    -0.1060     3.3200 h2         1 AVX       0.074700
     21 H8A         -2.2340     1.4950     2.8970 h2         1 AVX       0.074700
     22 H14          4.2610     0.0040    -0.6230 ha         1 AVX       0.160000
     23 H16          2.9410     0.8760    -5.3030 h1         1 AVX       0.053700
     24 H16A         1.4190    -0.0070    -5.1320 h1         1 AVX       0.053700
     25 H16B         2.9410    -0.8930    -5.3000 h1         1 AVX       0.053700
     26 HN17         5.5510     0.8600    -3.5190 hn         1 AVX       0.437800
     27 HN1A         5.5500    -0.8740    -3.5170 hn         1 AVX       0.437800
@<TRIPOS>BOND
     1     1     2 ar
     2     1     6 ar
     3     2     3 ar
     4     2    10 1
     5     3     4 ar
     6     4     5 ar
     7     4    15 1
     8     5     6 ar
     9     5     9 1
    10     6     7 1
    11     7     8 1
    12     8     9 1
    13    10    11 2
    14    10    14 1
    15    11    12 1
    16    12    13 1
    17    12    16 1
    18    13    14 2
    19    13    17 1
    20     1    18 1
    21     3    19 1
    22     8    20 1
    23     8    21 1
    24    14    22 1
    25    16    23 1
    26    16    24 1
    27    16    25 1
    28    17    26 1
    29    17    27 1
@<TRIPOS>SUBSTRUCTURE
     1 AVX         1 TEMP              0 ****  ****    0 ROOT
