@<TRIPOS>MOLECULE
AVZ
   41    43     1     0     0
SMALL
bcc


@<TRIPOS>ATOM
      1 N1           0.0000     0.0000     0.0000 nc         1 AVZ      -0.620000
      2 C2           3.2530    -2.3150    -5.3900 ca         1 AVZ      -0.209300
      3 C4           1.8580    -1.1810    -2.1180 c3         1 AVZ      -0.041200
      4 C5           2.2270     0.0010    -1.2200 c3         1 AVZ      -0.013700
      5 C6           1.3410     0.0000     0.0000 cc         1 AVZ       0.240600
      6 C            3.6670    -1.6290    -7.6470 ca         1 AVZ      -0.044600
      7 C11          4.8800    -2.3150    -7.6290 cp         1 AVZ       0.048000
      8 C12          5.7530    -2.3160    -8.8290 cp         1 AVZ      -0.092000
      9 C17          5.2230    -2.6300   -10.0800 ca         1 AVZ      -0.078500
     10 C16          6.0390    -2.6280   -11.1930 ca         1 AVZ      -0.092000
     11 C15          7.3810    -2.3180   -11.0690 ca         1 AVZ      -0.070000
     12 C14          7.9130    -2.0070    -9.8310 ca         1 AVZ      -0.092000
     13 C13          7.1050    -1.9990    -8.7120 ca         1 AVZ      -0.078500
     14 C10          5.2690    -3.0050    -6.4830 ca         1 AVZ      -0.074000
     15 C9           4.4530    -3.0020    -5.3690 ca         1 AVZ      -0.071000
     16 C1           2.8590    -1.6330    -6.5260 ca         1 AVZ      -0.068000
     17 C3           2.3670    -2.3160    -4.1700 c3         1 AVZ       0.054100
     18 N            2.7210    -1.1800    -3.3070 ny         1 AVZ       0.024000
     19 C8           1.7580     0.0000     1.2800 cd         1 AVZ      -0.403600
     20 N2           0.6340     0.0000     2.0620 na         1 AVZ       0.276100
     21 C7          -0.4310    -0.0010     1.2310 cd         1 AVZ       0.239400
     22 H2           1.9960    -2.1070    -1.5730 hx         1 AVZ       0.088200
     23 H3           0.8230    -1.0930    -2.4240 hx         1 AVZ       0.088200
     24 H4           2.0890     0.9260    -1.7660 hc         1 AVZ       0.027700
     25 H5           3.2620    -0.0870    -0.9150 hc         1 AVZ       0.027700
     26 H6           4.1720    -2.8730   -10.1780 ha         1 AVZ       0.108000
     27 H7           5.6280    -2.8720   -12.1650 ha         1 AVZ       0.113500
     28 H8           8.0190    -2.3200   -11.9440 ha         1 AVZ       0.112000
     29 H9           8.9640    -1.7620    -9.7400 ha         1 AVZ       0.113500
     30 H10          7.5230    -1.7550    -7.7430 ha         1 AVZ       0.108000
     31 H11          6.2100    -3.5420    -6.4650 ha         1 AVZ       0.132000
     32 H12          4.7550    -3.5360    -4.4760 ha         1 AVZ       0.108000
     33 H13          1.9180    -1.0960    -6.5360 ha         1 AVZ       0.118000
     34 H14          1.3310    -2.2280    -4.4750 hx         1 AVZ       0.079200
     35 H15          2.5050    -3.2410    -3.6240 hx         1 AVZ       0.079200
     36 H16          3.6780    -1.2610    -3.0240 hn         1 AVZ       0.241300
     37 H17          2.5940    -0.3250    -3.8110 hn         1 AVZ       0.241300
     38 H18          2.7850     0.0000     1.6250 h4         1 AVZ       0.159000
     39 H19          0.6070     0.0000     3.0630 hn         1 AVZ       0.136700
     40 H20         -1.4700    -0.0010     1.5370 h5         1 AVZ       0.038100
     41 Cl           3.1730    -0.7720    -9.0730 cl         1 AVZ       0.046600
@<TRIPOS>BOND
     1     1     5 1   
     2     1    21 2   
     3     2    15 ar  
     4     2    16 ar  
     5     2    17 1   
     6     3     4 1   
     7     3    18 1   
     8     3    22 1   
     9     3    23 1   
    10     4     5 1   
    11     4    24 1   
    12     4    25 1   
    13     5    19 2   
    14     6     7 ar  
    15     6    16 ar  
    16     6    41 1   
    17     7     8 1   
    18     7    14 ar  
    19     8     9 ar  
    20     8    13 ar  
    21     9    10 ar  
    22     9    26 1   
    23    10    11 ar  
    24    10    27 1   
    25    11    12 ar  
    26    11    28 1   
    27    12    13 ar  
    28    12    29 1   
    29    13    30 1   
    30    14    15 ar  
    31    14    31 1   
    32    15    32 1   
    33    16    33 1   
    34    17    18 1   
    35    17    34 1   
    36    17    35 1   
    37    18    36 1   
    38    18    37 1   
    39    19    20 1   
    40    19    38 1   
    41    20    21 1   
    42    20    39 1   
    43    21    40 1   
@<TRIPOS>SUBSTRUCTURE
     1 AVZ         1 TEMP              0 ****  ****    0 ROOT
