@<TRIPOS>MOLECULE
molecule
   70    73     1     0     0
SMALL
bcc


@<TRIPOS>ATOM
      1 N1           0.0000     0.0000     0.0000 nb         1 AW0      -0.774000
      2 C2           1.3200     0.0000     0.0000 ca         1 AW0       0.702900
      3 N3           2.0260     0.0000     1.1120 nb         1 AW0      -0.747000
      4 C4           1.4240     0.0010     2.2970 ca         1 AW0       0.443800
      5 C5           0.0210     0.0010     2.3490 ca         1 AW0      -0.160200
      6 C6          -0.6880     0.0010     1.1370 ca         1 AW0       0.775200
      7 N6          -2.0720     0.0010     1.1260 nv         1 AW0      -1.072500
      8 N7          -0.3290     0.0020     3.6590 nc         1 AW0      -0.580100
      9 C8           0.7450     0.0030     4.3940 cd         1 AW0       0.441700
     10 N9           1.8530     0.0020     3.6000 na         1 AW0      -0.270000
     11 CAB          3.7290    -3.9980     6.7850 c3         1 AW0      -0.104600
     12 CAC          2.9960    -2.5780     8.7040 c3         1 AW0      -0.104600
     13 OAE          7.9910    -5.2680    12.1840 o          1 AW0      -0.657100
     14 OAF          6.1980     1.5920     4.9420 oh         1 AW0      -0.569800
     15 OAG          4.5050     1.8640     3.0590 oh         1 AW0      -0.560800
     16 CAI          7.3480    -8.1640    15.6470 ca         1 AW0      -0.112500
     17 CAJ          8.9800    -9.6820    14.7660 ca         1 AW0      -0.112500
     18 CAK          7.2050    -7.5870    14.4000 ca         1 AW0      -0.123500
     19 CAL          8.8460    -9.1070    13.5180 ca         1 AW0      -0.123500
     20 CAN          5.9110    -3.8160     8.8450 c3         1 AW0      -0.104400
     21 CAO          6.6690    -4.1000    10.1430 c3         1 AW0       0.125000
     22 CAP          5.5980    -2.3200     8.7550 c3         1 AW0       0.156800
     23 NAU          6.9690    -5.5330    10.2290 ns         1 AW0      -0.616900
     24 NAV          7.9120    -7.3350    11.3740 ns         1 AW0      -0.590100
     25 OAW          3.5760    -0.7740     5.2210 os         1 AW0      -0.412600
     26 CAX          7.6370    -6.0180    11.2950 c          1 AW0       0.760100
     27 CAY          8.2360    -9.2070    15.8310 ca         1 AW0      -0.089300
     28 CBA          7.9550    -8.0580    13.3290 ca         1 AW0       0.157600
     29 CBD          3.6590    -2.5680     7.3260 c3         1 AW0       0.155500
     30 CBE          4.8970     1.1870     5.3750 c3         1 AW0       0.086100
     31 CBF          3.8680     1.3600     4.2350 c3         1 AW0       0.086100
     32 CBG          4.8730    -0.3280     5.6760 c3         1 AW0       0.136100
     33 CBH          3.3450    -0.0710     3.9810 c3         1 AW0       0.265800
     34 H2           1.8420    -0.0010    -0.9490 h5         1 AW0       0.063100
     35 HN6         -2.5720    -0.8650     1.0870 hn         1 AW0       0.443300
     36 HN6A        -2.5720     0.8680     1.1150 hn         1 AW0       0.443300
     37 H8           0.7560     0.0050     5.4770 h5         1 AW0       0.082800
     38 HAA          7.4320    -9.8500    17.6950 hc         1 AW0       0.047367
     39 HAAA         8.7670   -10.8410    17.0880 hc         1 AW0       0.047367
     40 HAAB         9.0930    -9.2460    17.7790 hc         1 AW0       0.047367
     41 HAB          4.7090    -4.1750     6.3580 hc         1 AW0       0.039533
     42 HABA         3.5540    -4.6990     7.5920 hc         1 AW0       0.039533
     43 HABB         2.9730    -4.1320     6.0210 hc         1 AW0       0.039533
     44 HAC          1.9320    -2.7490     8.5920 hc         1 AW0       0.039533
     45 HACA         3.4270    -3.3670     9.3080 hc         1 AW0       0.039533
     46 HACB         3.1580    -1.6230     9.1900 hc         1 AW0       0.039533
     47 HOAF         6.4530     2.3740     5.4020 ho         1 AW0       0.404000
     48 HOAG         4.3600     2.7940     2.9980 ho         1 AW0       0.408000
     49 HAJ          9.6750   -10.5000    14.9130 ha         1 AW0       0.145000
     50 HAK          6.5090    -6.7700    14.2580 ha         1 AW0       0.157000
     51 HAL          9.4310    -9.4770    12.6850 ha         1 AW0       0.157000
     52 HAN          6.5200    -4.1090     7.9990 hc         1 AW0       0.056200
     53 HANA         4.9860    -4.3800     8.8370 hc         1 AW0       0.056200
     54 HAO          6.0600    -3.8070    10.9890 h1         1 AW0       0.048200
     55 HAOA         7.5950    -3.5370    10.1510 h1         1 AW0       0.048200
     56 HAP          4.8920    -2.0510     9.5310 h1         1 AW0       0.040700
     57 HAPA         6.5110    -1.7520     8.8850 h1         1 AW0       0.040700
     58 HNAU         6.7150    -6.1430     9.4780 hn         1 AW0       0.302500
     59 HNAV         7.7850    -7.9190    10.5710 hn         1 AW0       0.284500
     60 HBD          3.0780    -1.9540     6.6500 h1         1 AW0       0.083700
     61 HBE          4.5900     1.7500     6.2480 h1         1 AW0       0.047700
     62 HBF          3.0610     2.0120     4.5460 h1         1 AW0       0.055700
     63 HBG          5.6570    -0.8320     5.1240 h1         1 AW0       0.095700
     64 HBH          3.9030    -0.5370     3.1780 h2         1 AW0       0.120700
     65 CAQ          5.0260    -0.5750     7.1780 c3         1 AW0       0.167800
     66 NBI          5.0170    -2.0210     7.4390 n3         1 AW0      -0.721600
     67 HAI          6.7640    -7.7970    16.4820 ha         1 AW0       0.145000
     68 CAA          8.3930    -9.8300    17.1940 c3         1 AW0      -0.047800
     69 HAQ          5.9620    -0.1510     7.5210 h1         1 AW0       0.044700
     70 HAQA         4.2030    -0.1070     7.7070 h1         1 AW0       0.044700
@<TRIPOS>BOND
     1     6     1 ar
     2     1     2 ar
     3     2     3 ar
     4     2    34 1
     5     4     3 ar
     6     5     4 ar
     7     4    10 1
     8     6     5 ar
     9     8     5 1
    10     7     6 1
    11     7    35 1
    12     7    36 1
    13     8     9 2
    14     9    10 1
    15     9    37 1
    16    10    33 1
    17    27    68 1
    18    68    38 1
    19    68    39 1
    20    68    40 1
    21    11    29 1
    22    11    41 1
    23    11    42 1
    24    11    43 1
    25    12    29 1
    26    12    44 1
    27    12    45 1
    28    12    46 1
    29    13    26 2
    30    14    30 1
    31    14    47 1
    32    15    31 1
    33    15    48 1
    34    18    16 ar
    35    16    27 ar
    36    16    67 1
    37    19    17 ar
    38    17    27 ar
    39    17    49 1
    40    28    18 ar
    41    18    50 1
    42    28    19 ar
    43    19    51 1
    44    20    22 1
    45    20    21 1
    46    20    52 1
    47    20    53 1
    48    21    23 1
    49    21    54 1
    50    21    55 1
    51    66    22 1
    52    22    56 1
    53    22    57 1
    54    32    65 1
    55    65    66 1
    56    65    69 1
    57    65    70 1
    58    23    26 1
    59    23    58 1
    60    26    24 1
    61    24    28 1
    62    24    59 1
    63    33    25 1
    64    25    32 1
    65    66    29 1
    66    29    60 1
    67    31    30 1
    68    30    32 1
    69    30    61 1
    70    31    33 1
    71    31    62 1
    72    32    63 1
    73    33    64 1
@<TRIPOS>SUBSTRUCTURE
     1 AW0         1 TEMP              0 ****  ****    0 ROOT
