@<TRIPOS>MOLECULE
AW1
   79    80     1     0     0
SMALL
bcc


@<TRIPOS>ATOM
      1 N1         -2.1290   -1.2920    1.3530 nb        1 AW1     -0.791000
      2 C2         -1.3830   -0.2950    0.8120 ca        1 AW1      0.685900
      3 N3         -0.2820    0.3350    1.2930 nb        1 AW1     -0.717000
      4 C4          0.0950   -0.1380    2.5140 ca        1 AW1      0.474800
      5 C5         -0.5980   -1.2050    3.2240 ca        1 AW1     -0.237200
      6 C6         -1.7450   -1.7800    2.5830 ca        1 AW1      0.762200
      7 N6         -2.4260   -2.8090    3.1760 nh        1 AW1     -0.958500
      8 N7          0.0330   -1.4660    4.4530 nc        1 AW1     -0.539100
      9 C8          1.0590   -0.6160    4.5170 cd        1 AW1      0.428700
     10 N9          1.1630    0.2260    3.3640 na        1 AW1     -0.093000
     11 CAA         5.0570   -3.8260    7.1770 c3        1 AW1     -0.104100
     12 CAB         4.0730   -2.2610    8.8440 c3        1 AW1     -0.104100
     13 OAG         7.9280   -3.9490   12.4550 o         1 AW1     -0.617100
     14 OAH         5.8740    1.1670    3.4900 oh        1 AW1     -0.628800
     15 OAI         3.7230    3.0470    2.8340 oh        1 AW1     -0.356600
     16 CAK         7.7340   -6.2620   14.0470 ca        1 AW1     -0.157500
     17 CAL         9.7520   -7.5480   13.6590 ca        1 AW1     -0.157500
     18 CAM         7.5470   -6.9500   15.2390 ca        1 AW1     -0.107000
     19 CAN         9.5410   -8.2290   14.8530 ca        1 AW1     -0.107000
     20 CAP         7.4650   -2.9730    9.0760 c3        1 AW1     -0.116400
     21 CAQ         8.6260   -2.7840   10.0550 c3        1 AW1      0.070000
     22 CAR         6.9160   -1.6000    8.6910 c3        1 AW1      0.182800
     23 NAW         9.2290   -4.0020   10.5380 n         1 AW1     -0.532900
     24 NAX         9.0510   -5.9380   11.9760 n         1 AW1     -0.457100
     25 OAY         4.1620   -0.0880    5.3800 oh        1 AW1     -0.616800
     26 CAZ         8.6850   -4.6020   11.7010 c         1 AW1      0.743100
     27 CBB         8.8460   -6.5510   13.2300 ca        1 AW1      0.055600
     28 CBC         8.4390   -7.9440   15.6650 ca        1 AW1     -0.085300
     29 CBF         4.8550   -2.3530    7.5340 c3        1 AW1      0.172500
     30 CBG         6.2380    1.0630    4.8560 c3        1 AW1      0.089400
     31 CBH         2.8670    2.0570    2.9660 c1        1 AW1      0.016600
     32 CBI         5.5770   -0.1660    5.4900 c3        1 AW1      0.104100
     33 CBJ         2.0740    1.1840    3.1770 c1        1 AW1     -0.175300
     34 CBM         8.1850   -8.6590   16.9650 c3        1 AW1     -0.006700
     35 H2         -1.7330    0.0600   -0.1820 h5        1 AW1      0.054100
     36 HN6        -3.2570   -3.1620    2.7710 hn        1 AW1      0.448800
     37 HN6A       -2.1760   -3.0780    4.0950 hn        1 AW1      0.448800
     38 H8          1.7970   -0.5320    5.3300 h5        1 AW1      0.098800
     39 HAA         4.0550   -4.2880    7.0010 hc        1 AW1      0.038200
     40 HAAA        5.6680   -3.9330    6.2500 hc        1 AW1      0.038200
     41 HAAB        5.5600   -4.3850    8.0010 hc        1 AW1      0.038200
     42 HAB         4.6190   -2.7610    9.6790 hc        1 AW1      0.038200
     43 HABA        3.8900   -1.1960    9.1230 hc        1 AW1      0.038200
     44 HABB        3.0870   -2.7680    8.7150 hc        1 AW1      0.038200
     45 HAC         9.2780  -10.4840   16.4720 hc        1 AW1      0.036589
     46 HACA       10.2560   -9.2300   17.3550 hc        1 AW1      0.036589
     47 HACB        9.0160  -10.2060   18.2420 hc        1 AW1      0.036589
     48 HAD         6.8210  -10.1040   16.0680 hc        1 AW1      0.036589
     49 HADA        6.6340   -9.8960   17.8610 hc        1 AW1      0.036589
     50 HADB        6.0120   -8.6230   16.7310 hc        1 AW1      0.036589
     51 HAE         7.9850   -8.1660   19.0760 hc        1 AW1      0.036589
     52 HAEA        9.1530   -7.1170   18.1660 hc        1 AW1      0.036589
     53 HAEB        7.3670   -6.8870   17.9500 hc        1 AW1      0.036589
     54 HOAH        6.2470    0.4050    3.0300 ho        1 AW1      0.411000
     55 HOAI        4.5770    2.6400    2.5700 ho        1 AW1      0.449000
     56 HAL        10.6340   -7.8020   13.0520 ha        1 AW1      0.147500
     57 HAM         6.6710   -6.7010   15.8600 ha        1 AW1      0.134500
     58 HAN        10.2710   -9.0000   15.1450 ha        1 AW1      0.134500
     59 HAP         7.8110   -3.5280    8.1660 hc        1 AW1      0.055700
     60 HAPA        6.6590   -3.5800    9.5640 hc        1 AW1      0.055700
     61 HAQ         9.4490   -2.2060    9.5440 h1        1 AW1      0.069700
     62 HAQA        8.2680   -2.1830   10.9400 h1        1 AW1      0.069700
     63 HAR         6.3510   -1.1840    9.5770 h1        1 AW1      0.031200
     64 HARA        7.7990   -0.9190    8.5110 h1        1 AW1      0.031200
     65 HNAW        9.5230   -4.6210    9.8140 hn        1 AW1      0.286500
     66 HNAX        9.8240   -6.3090   11.4660 hn        1 AW1      0.304500
     67 HBF         4.1830   -1.9240    6.7220 h1        1 AW1      0.070700
     68 HBG         7.3520    1.0070    4.9620 h1        1 AW1      0.064700
     69 HBH         5.8520    2.0090    5.3220 h1        1 AW1      0.064700
     70 HBI         5.9260   -1.0930    4.9520 h1        1 AW1      0.055700
     71 HBJ         3.9630    0.2640    4.5000 ho        1 AW1      0.415000
     72 CAS         5.9030   -0.2250    6.9970 c3        1 AW1      0.178800
     73 NBK         6.1060   -1.5860    7.4810 n3        1 AW1     -0.742600
     74 HAK         7.0130   -5.4810   13.7530 ha        1 AW1      0.147500
     75 CAC         9.2500   -9.7050   17.2710 c3        1 AW1     -0.085767
     76 CAD         6.8310   -9.3610   16.9010 c3        1 AW1     -0.085767
     77 CAE         8.1710   -7.6450   18.1070 c3        1 AW1     -0.085767
     78 HAS         6.8510    0.3600    7.1620 h1        1 AW1      0.046200
     79 HASA        5.0710    0.3010    7.5510 h1        1 AW1      0.046200
@<TRIPOS>BOND
     1    1    2 ar
     2    1    6 ar
     3    2    3 ar
     4    2   35 1
     5    3    4 ar
     6    4    5 ar
     7    4   10 1
     8    5    6 ar
     9    5    8 1
    10    6    7 1
    11    7   36 1
    12    7   37 1
    13    8    9 2
    14    9   10 1
    15    9   38 1
    16   10   33 1
    17   11   29 1
    18   11   39 1
    19   11   40 1
    20   11   41 1
    21   12   29 1
    22   12   42 1
    23   12   43 1
    24   12   44 1
    25   13   26 2
    26   14   30 1
    27   14   54 1
    28   15   31 1
    29   15   55 1
    30   16   18 ar
    31   16   27 ar
    32   16   74 1
    33   17   19 ar
    34   17   27 ar
    35   17   56 1
    36   18   28 ar
    37   18   57 1
    38   19   28 ar
    39   19   58 1
    40   20   21 1
    41   20   22 1
    42   20   59 1
    43   20   60 1
    44   21   23 1
    45   21   61 1
    46   21   62 1
    47   22   63 1
    48   22   64 1
    49   22   73 1
    50   23   26 1
    51   23   65 1
    52   24   26 1
    53   24   27 1
    54   24   66 1
    55   25   32 1
    56   25   71 1
    57   28   34 1
    58   29   67 1
    59   29   73 1
    60   30   32 1
    61   30   68 1
    62   30   69 1
    63   31   33 3
    64   32   70 1
    65   32   72 1
    66   34   75 1
    67   34   76 1
    68   34   77 1
    69   45   75 1
    70   46   75 1
    71   47   75 1
    72   48   76 1
    73   49   76 1
    74   50   76 1
    75   51   77 1
    76   52   77 1
    77   53   77 1
    78   72   73 1
    79   72   78 1
    80   72   79 1
@<TRIPOS>SUBSTRUCTURE
     1 AW1         1 TEMP              0 ****  ****    0 ROOT
