@<TRIPOS>MOLECULE
molecule
   71    74     1     0     0
SMALL
bcc


@<TRIPOS>ATOM
      1 N1           0.0000     0.0000     0.0000 nb         1 AW3      -0.776000
      2 C2           1.3210     0.0000     0.0000 ca         1 AW3       0.711900
      3 N3           2.0310     0.0000     1.1080 nb         1 AW3      -0.769000
      4 C4           1.4350    -0.0000     2.2990 ca         1 AW3       0.501800
      5 C5           0.0290    -0.0000     2.3470 ca         1 AW3      -0.340400
      6 C6          -0.6860     0.0010     1.1390 ca         1 AW3       0.770200
      7 NAD         -2.0700    -0.0000     1.1340 nv         1 AW3      -1.077500
      8 OAE          6.1110    -5.0360    12.9700 o          1 AW3      -0.648100
      9 OAF          6.2700     1.6370     4.7540 oh         1 AW3      -0.588800
     10 OAG          4.5230     1.8670     2.9160 oh         1 AW3      -0.564800
     11 CAJ          4.7490    -6.4060    15.1730 ca         1 AW3      -0.116000
     12 CAK          6.2270    -8.2310    14.6590 ca         1 AW3      -0.116000
     13 CAL          4.7290    -6.8000    16.4970 ca         1 AW3      -0.121000
     14 CAM          6.2120    -8.6140    15.9860 ca         1 AW3      -0.121000
     15 CAN          0.8190     0.0000     4.4570 cc         1 AW3      -0.039100
     16 CAO          5.5580    -3.6610     9.0470 c3         1 AW3      -0.113400
     17 CAP          5.4570    -2.1560     8.7930 c3         1 AW3       0.085800
     18 CAQ          5.7570    -3.9140    10.5430 c3         1 AW3       0.073000
     19 NAU          5.2670    -1.9130     7.3560 n7         1 AW3      -0.679200
     20 NAV          5.8540    -5.3540    10.7870 ns         1 AW3      -0.611900
     21 NAW          6.1230    -7.1420    12.2650 ns         1 AW3      -0.474100
     22 OAX          3.6580    -0.7190     5.1670 os         1 AW3      -0.393600
     23 CAY          6.0320    -5.8160    12.0410 c          1 AW3       0.719100
     24 CBA          5.4990    -7.1210    14.2490 ca         1 AW3       0.098600
     25 CBB         -0.3310     0.0010     3.7630 cd         1 AW3      -0.087500
     26 CBC          5.4590    -7.9020    16.9030 ca         1 AW3      -0.075300
     27 CBF          4.9830     1.2440     5.2340 c3         1 AW3       0.071100
     28 CBG          3.9220     1.3900     4.1210 c3         1 AW3       0.100100
     29 CBH          4.9680    -0.2640     5.5710 c3         1 AW3       0.136100
     30 CBI          3.3910    -0.0460     3.9180 c3         1 AW3       0.226800
     31 NBJ          1.8830     0.0000     3.5910 na         1 AW3      -0.173100
     32 CBK          5.4570    -8.3450    18.3430 c3         1 AW3      -0.028700
     33 H2           1.8610    -0.0000    -0.9390 h5         1 AW3       0.061100
     34 HAA          5.6770    -6.1960    18.6800 hc         1 AW3       0.038367
     35 HAAA         4.5830    -6.9900    19.8210 hc         1 AW3       0.038367
     36 HAAB         6.3330    -7.1950    19.9840 hc         1 AW3       0.038367
     37 HAB          7.4920    -9.0300    17.8960 hc         1 AW3       0.038367
     38 HABA         6.4320   -10.3030    18.5160 hc         1 AW3       0.038367
     39 HABB         7.0850    -9.0810    19.6160 hc         1 AW3       0.038367
     40 HAC          4.1510    -9.5320    19.6610 hc         1 AW3       0.038367
     41 HACA         3.2670    -8.5180    18.5120 hc         1 AW3       0.038367
     42 HACB         4.0570   -10.0010    17.9580 hc         1 AW3       0.038367
     43 HNAD        -2.5700     0.8640     1.0730 hn         1 AW3       0.444300
     44 HNAA        -2.5700    -0.8620     1.2250 hn         1 AW3       0.444300
     45 HOAF         6.5990     2.3460     5.2810 ho         1 AW3       0.416000
     46 HOAG         5.0990     1.2060     2.5690 ho         1 AW3       0.416000
     47 HAK          6.8170    -8.7880    13.9410 ha         1 AW3       0.153500
     48 HAL          4.1440    -6.2430    17.2190 ha         1 AW3       0.145000
     49 HAM          6.7790    -9.4790    16.3070 ha         1 AW3       0.145000
     50 HAN          0.9110     0.0400     5.5360 h4         1 AW3       0.188000
     51 HAO          4.5710    -4.0620     9.2400 hc         1 AW3       0.064700
     52 HAOA         5.9810    -4.1460     8.1750 hc         1 AW3       0.064700
     53 HAP          6.0340    -1.6240     9.5400 h1         1 AW3       0.057200
     54 HAPA         4.4200    -1.8490     8.8520 h1         1 AW3       0.057200
     55 HAQ          5.4050    -3.0560    11.1040 h1         1 AW3       0.077700
     56 HAQA         6.8090    -4.0710    10.7460 h1         1 AW3       0.077700
     57 HNAU         6.1520    -1.7220     6.9300 hn         1 AW3       0.299800
     58 HNAV         5.8670    -5.9920    10.0160 hn         1 AW3       0.312500
     59 HNAW         5.6490    -7.7850    11.6620 hn         1 AW3       0.257500
     60 HBF          4.7010     1.8270     6.1020 h1         1 AW3       0.059700
     61 HBG          3.1240     2.0500     4.4410 h1         1 AW3       0.105700
     62 HBH          5.7350    -0.7820     5.0080 h1         1 AW3       0.079700
     63 HBI          3.9250    -0.5310     3.1090 h2         1 AW3       0.097700
     64 BrH         -2.0810    -0.0010     4.4820 br         1 AW3      -0.050700
     65 CAR          5.1650    -0.4760     7.0740 c3         1 AW3       0.100800
     66 HAJ          4.1760    -5.5430    14.8560 ha         1 AW3       0.153500
     67 CAA          5.5170    -7.0840    19.2800 c3         1 AW3      -0.081767
     68 CAB          6.7150    -9.2620    18.6140 c3         1 AW3      -0.081767
     69 CAC          4.1270    -9.1640    18.6430 c3         1 AW3      -0.081767
     70 HAR          6.1510    -0.0760     6.8750 h1         1 AW3       0.043200
     71 HARA         4.7360     0.0310     7.9300 h1         1 AW3       0.043200
@<TRIPOS>BOND
     1     1     2 ar
     2     1     6 ar
     3     2     3 ar
     4     2    33 1
     5     3     4 ar
     6     5     4 ar
     7     4    31 1
     8     6     5 ar
     9     5    25 1
    10     7     6 1
    11    64    25 1
    12    32    67 1
    13    67    34 1
    14    67    35 1
    15    67    36 1
    16    68    32 1
    17    68    37 1
    18    68    38 1
    19    68    39 1
    20    32    69 1
    21    69    40 1
    22    69    41 1
    23    69    42 1
    24     7    43 1
    25     7    44 1
    26    23     8 2
    27     9    27 1
    28     9    45 1
    29    10    28 1
    30    10    46 1
    31    24    11 ar
    32    11    13 ar
    33    11    66 1
    34    24    12 ar
    35    12    14 ar
    36    12    47 1
    37    13    26 ar
    38    13    48 1
    39    14    26 ar
    40    14    49 1
    41    25    15 2
    42    31    15 1
    43    15    50 1
    44    17    16 1
    45    16    18 1
    46    16    51 1
    47    16    52 1
    48    19    17 1
    49    17    53 1
    50    17    54 1
    51    18    20 1
    52    18    55 1
    53    18    56 1
    54    29    65 1
    55    65    19 1
    56    65    70 1
    57    65    71 1
    58    19    57 1
    59    20    23 1
    60    20    58 1
    61    23    21 1
    62    21    24 1
    63    21    59 1
    64    30    22 1
    65    29    22 1
    66    26    32 1
    67    28    27 1
    68    27    29 1
    69    27    60 1
    70    28    30 1
    71    28    61 1
    72    29    62 1
    73    31    30 1
    74    30    63 1
@<TRIPOS>SUBSTRUCTURE
     1 AW3         1 TEMP              0 ****  ****    0 ROOT
