@<TRIPOS>MOLECULE
AW3
   73    75     1     0     0
SMALL
bcc


@<TRIPOS>ATOM
      1 N1          0.7680    0.6960   -0.6910 nb        1 AW3     -0.718000
      2 C2          1.9480    0.3100   -0.2060 ca        1 AW3      0.729900
      3 N3          2.3230    0.1220    1.1160 nb        1 AW3     -0.729000
      4 C4          1.3260    0.3760    1.9700 ca        1 AW3      0.488800
      5 C5         -0.0050    0.8010    1.6120 ca        1 AW3     -0.419400
      6 C6         -0.2700    0.9620    0.2150 ca        1 AW3      0.785200
      7 NAD        -1.4760    1.3580   -0.2550 nh        1 AW3     -0.907500
      8 OAE         7.7090   -5.1510   12.7590 o         1 AW3     -0.473100
      9 OAF         4.2610    1.5540    5.5510 oh        1 AW3     -0.585800
     10 OAG         1.5790    0.4670    6.3140 oh        1 AW3     -0.577800
     11 CAJ         6.5010   -6.0150   15.2850 ca        1 AW3     -0.118500
     12 CAK         5.2410   -8.0190   14.7130 ca        1 AW3     -0.118500
     13 CAL         6.5540   -6.4470   16.6060 ca        1 AW3     -0.107000
     14 CAM         5.3030   -8.4250   16.0420 ca        1 AW3     -0.107000
     15 CAN         0.0740    0.6520    3.9070 cc        1 AW3     -0.174100
     16 CAO         5.5560   -4.0530    9.0130 c3        1 AW3     -0.158400
     17 CAP         4.5070   -2.9450    8.8170 c3        1 AW3      0.179800
     18 CAQ         5.5530   -4.4700   10.4770 c3        1 AW3      0.109800
     19 NAU         4.3820   -2.3930    7.4960 n3        1 AW3     -0.835200
     20 NAV         6.5550   -5.5260   10.7890 n4        1 AW3     -0.682800
     21 NAW         5.6930   -6.3710   12.9710 n         1 AW3     -0.383100
     22 OAX         4.7470   -1.5360    4.7070 oh        1 AW3     -0.633800
     23 CAY         6.7060   -5.7210   12.3250 c         1 AW3      0.635100
     24 CBA         5.8340   -6.8000   14.3270 ca        1 AW3     -0.039400
     25 CBB        -0.7560    0.9600    2.8490 cd        1 AW3      0.066500
     26 CBC         5.9590   -7.6520   17.0090 ca        1 AW3     -0.014300
     27 CBF         3.9910    0.2720    6.0770 c3        1 AW3      0.121100
     28 CBG         2.5950   -0.1970    5.6040 c3        1 AW3      0.045800
     29 CBH         5.1320   -0.7230    5.8050 c3        1 AW3      0.110100
     30 CBI         2.4520   -0.0670    4.1060 c2        1 AW3      0.372200
     31 NBJ         1.3860    0.2840    3.4340 na        1 AW3     -0.076100
     32 CBK         6.0470   -8.0720   18.4530 c3        1 AW3     -0.020700
     33 H2          2.7520    0.1080   -0.9530 h5        1 AW3      0.094100
     34 HNAD       -2.2170    1.5550    0.3760 hn        1 AW3      0.473300
     35 HNAA       -1.6320    1.4660   -1.2340 hn        1 AW3      0.473300
     36 HOAF        4.6720    1.4570    4.6810 ho        1 AW3      0.418000
     37 HOAG        1.8520    1.3890    6.4510 ho        1 AW3      0.442000
     38 HAL         7.0800   -5.8210   17.3480 ha        1 AW3      0.163500
     39 HAM         4.8240   -9.3800   16.3170 ha        1 AW3      0.163500
     40 HAN        -0.1260    0.6390    4.9880 h4        1 AW3      0.238000
     41 HAO         6.5690   -3.6700    8.7170 hc        1 AW3      0.067200
     42 HAOA        5.3120   -4.9270    8.3540 hc        1 AW3      0.067200
     43 HAP         4.7400   -2.1040    9.5320 h1        1 AW3      0.071700
     44 HAPA        3.4960   -3.3640    9.0910 h1        1 AW3      0.071700
     45 HAQ         4.5340   -4.8590   10.7660 hx        1 AW3      0.110700
     46 HAQA        5.7920   -3.5780   11.1290 hx        1 AW3      0.110700
     47 HNAU        4.1460   -3.0890    6.8140 hn        1 AW3      0.381800
     48 HNAV        6.3080   -6.4010   10.3220 hn        1 AW3      0.457800
     49 HNAW        4.9930   -6.8530   12.4450 hn        1 AW3      0.338500
     50 HBF         3.9150    0.4440    7.1950 h1        1 AW3      0.126700
     51 HBG         2.4650   -1.3000    5.8430 h1        1 AW3      0.149700
     52 HBH         6.0590   -0.1340    5.5370 h1        1 AW3      0.077700
     53 HBI         5.5160   -2.0620    4.4500 ho        1 AW3      0.436000
     54 BRH        -2.5090    1.4760    2.9990 br        1 AW3      0.068300
     55 HAJ         6.9910   -5.0690   15.0050 ha        1 AW3      0.147500
     56 CAA         5.3500   -9.4010   18.7150 c3        1 AW3     -0.091767
     57 CAB         5.3910   -7.0060   19.3270 c3        1 AW3     -0.091767
     58 CAC         7.5160   -8.2150   18.8460 c3        1 AW3     -0.091767
     59 HAU2        3.3690   -0.3520    3.5220 h4        1 AW3      0.100800
     60 HAV2        7.4810   -5.2280   10.4500 hn        1 AW3      0.457800
     61 CAR         5.4810   -1.5720    7.0430 c3        1 AW3      0.132800
     62 HAK         4.7170   -8.6560   13.9840 ha        1 AW3      0.147500
     63 HAR         5.7750   -0.8650    7.8710 h1        1 AW3      0.052700
     64 HAA         5.8180  -10.2190   18.1160 hc        1 AW3      0.046144
     65 HAAA        5.4440   -9.6640   19.7970 hc        1 AW3      0.046144
     66 HAAB        4.2640   -9.3350   18.4660 hc        1 AW3      0.046144
     67 HAB         5.9080   -6.0230   19.2110 hc        1 AW3      0.046144
     68 HABA        4.3170   -6.8830   19.0520 hc        1 AW3      0.046144
     69 HABB        5.4520   -7.3110   20.4000 hc        1 AW3      0.046144
     70 HAC         7.5890   -8.5300   19.9160 hc        1 AW3      0.046144
     71 HACA        8.0560   -7.2460   18.7260 hc        1 AW3      0.046144
     72 HACB        8.0150   -8.9870   18.2130 hc        1 AW3      0.046144
     73 HARA        6.3930   -2.1860    6.7790 h1        1 AW3      0.052700
@<TRIPOS>BOND
     1    1    2 ar  
     2    1    6 ar  
     3    2    3 ar  
     4    2   33 1   
     5    3    4 ar  
     6    4    5 ar  
     7    4   31 1   
     8    5    6 ar  
     9    5   25 1   
    10    6    7 1   
    11    7   34 1   
    12    7   35 1   
    13    8   23 2   
    14    9   27 1   
    15    9   36 1   
    16   10   28 1   
    17   10   37 1   
    18   11   13 ar  
    19   11   24 ar  
    20   11   55 1   
    21   12   14 ar  
    22   12   24 ar  
    23   12   62 1   
    24   13   26 ar  
    25   13   38 1   
    26   14   26 ar  
    27   14   39 1   
    28   15   25 2   
    29   15   31 1   
    30   15   40 1   
    31   16   17 1   
    32   16   18 1   
    33   16   41 1   
    34   16   42 1   
    35   17   19 1   
    36   17   43 1   
    37   17   44 1   
    38   18   20 1   
    39   18   45 1   
    40   18   46 1   
    41   19   47 1   
    42   19   61 1   
    43   20   23 1   
    44   20   48 1   
    45   20   60 1   
    46   21   23 1   
    47   21   24 1   
    48   21   49 1   
    49   22   29 1   
    50   22   53 1   
    51   25   54 1   
    52   26   32 1   
    53   27   28 1   
    54   27   29 1   
    55   27   50 1   
    56   28   30 1   
    57   28   51 1   
    58   29   52 1   
    59   29   61 1   
    60   30   31 2   
    61   30   59 1   
    62   32   56 1   
    63   32   57 1   
    64   32   58 1   
    65   56   64 1   
    66   56   65 1   
    67   56   66 1   
    68   57   67 1   
    69   57   68 1   
    70   57   69 1   
    71   58   70 1   
    72   58   71 1   
    73   58   72 1   
    74   61   63 1   
    75   61   73 1   
@<TRIPOS>SUBSTRUCTURE
     1 AW3         1 TEMP              0 ****  ****    0 ROOT
