@<TRIPOS>MOLECULE
molecule
   66    67     1     0     0
SMALL
bcc


@<TRIPOS>ATOM
      1 C12          0.0000     0.0000     0.0000 c          1 AW4       0.702500
      2 C14          0.6390    -0.6300     2.1430 c3         1 AW4       0.094000
      3 C15          1.8920     0.0000     1.4990 c3         1 AW4      -0.094400
      4 O01         -3.8970     0.9880    -3.9180 o          1 AW4      -0.623000
      5 N03         -1.9820     0.3440    -4.8400 ns         1 AW4      -0.547900
      6 C04         -1.6830    -0.5410    -3.7110 c3         1 AW4       0.057700
      7 N06          0.3230    -1.1960    -2.4190 ns         1 AW4      -0.563900
      8 C07          1.7690    -1.1760    -2.1890 c3         1 AW4       0.120700
      9 C08          2.4130    -2.3730    -2.8940 c3         1 AW4      -0.025100
     10 O09          3.8050    -2.4210    -2.5750 oh         1 AW4      -0.578800
     11 C10          2.0480    -1.2580    -0.6870 c3         1 AW4      -0.093400
     12 C11          1.5130     0.0000     0.0000 c3         1 AW4      -0.158700
     13 N13         -0.4620    -0.3480     1.2130 ns         1 AW4      -0.589900
     14 O16         -0.6950     0.2780    -0.9540 o          1 AW4      -0.643500
     15 O17          0.5520    -0.2390    -4.4090 o          1 AW4      -0.651100
     16 C18         -2.2650    -1.9290    -3.9830 c3         1 AW4      -0.082400
     17 C20         -3.0390    -2.1990    -1.6240 c3         1 AW4      -0.080100
     18 C21         -2.6010    -4.2150    -3.0330 c3         1 AW4      -0.080100
     19 O22         -3.4660     1.7580    -5.9540 os         1 AW4      -0.449900
     20 C23         -4.7310     2.4690    -5.9180 c3         1 AW4       0.174400
     21 C24         -4.9250     3.2350    -7.2280 c3         1 AW4      -0.043100
     22 C25         -6.2380     3.9740    -7.1890 ca         1 AW4      -0.070300
     23 C26         -7.3890     3.3580    -7.6420 ca         1 AW4      -0.114000
     24 C27         -8.5970     4.0330    -7.6010 ca         1 AW4       0.030400
     25 Cl1        -10.0440     3.2610    -8.1700 cl         1 AW4      -0.116400
     26 C29         -8.6500     5.3250    -7.1070 ca         1 AW4      -0.127000
     27 C30         -7.4970     5.9390    -6.6540 ca         1 AW4      -0.120000
     28 C31         -6.2920     5.2640    -6.6960 ca         1 AW4      -0.120000
     29 H1           0.7720    -1.7000     2.2510 h1         1 AW4       0.045700
     30 H2           0.4420    -0.1720     3.1050 h1         1 AW4       0.045700
     31 H3           2.7660    -0.6160     1.6740 hc         1 AW4       0.056200
     32 H4           2.0430     1.0110     1.8580 hc         1 AW4       0.056200
     33 H5          -1.1210    -2.7980    -2.3850 hc         1 AW4       0.102700
     34 H6          -1.3170     0.4540    -5.5800 hn         1 AW4       0.339500
     35 H7          -2.1220    -0.1350    -2.8080 h1         1 AW4       0.113700
     36 H8          -0.2880    -1.5860    -1.7290 hn         1 AW4       0.337500
     37 H9           2.1860    -0.2580    -2.5840 h1         1 AW4       0.065700
     38 H10          2.2910    -2.2690    -3.9650 h2         1 AW4       0.079700
     39 H12          4.3070    -2.5030    -3.3690 ho         1 AW4       0.396000
     40 H13          3.1150    -1.3340    -0.5210 hc         1 AW4       0.090200
     41 H14          1.5550    -2.1310    -0.2760 hc         1 AW4       0.090200
     42 H15          1.8890     0.8930    -0.4840 hc         1 AW4       0.077700
     43 H16         -1.4290    -0.5240     1.4010 hn         1 AW4       0.330500
     44 H17         -1.7160    -2.3990    -4.7900 hc         1 AW4       0.051700
     45 H18         -3.3080    -1.8350    -4.2630 hc         1 AW4       0.051700
     46 H19         -2.6210    -1.2590    -1.2840 hc         1 AW4       0.028367
     47 H20         -4.0480    -2.0360    -1.9830 hc         1 AW4       0.028367
     48 H21         -3.0580    -2.9040    -0.8020 hc         1 AW4       0.028367
     49 H22         -2.0760    -4.5770    -3.9090 hc         1 AW4       0.028367
     50 H23         -3.6550    -4.1100    -3.2610 hc         1 AW4       0.028367
     51 H24         -2.4760    -4.9210    -2.2210 hc         1 AW4       0.028367
     52 H25         -4.7300     3.1660    -5.0890 h1         1 AW4       0.052200
     53 H26         -5.5410     1.7600    -5.7920 h1         1 AW4       0.052200
     54 H27         -4.9270     2.5380    -8.0570 hc         1 AW4       0.062200
     55 H28         -4.1150     3.9440    -7.3550 hc         1 AW4       0.062200
     56 H29         -7.3460     2.3480    -8.0310 ha         1 AW4       0.149000
     57 H30         -9.5950     5.8540    -7.0750 ha         1 AW4       0.139000
     58 H31         -7.5380     6.9500    -6.2670 ha         1 AW4       0.134000
     59 H32         -5.3890     5.7450    -6.3410 ha         1 AW4       0.138000
     60 S1           1.6130    -3.9030    -2.3400 s6         1 AW4       1.246800
     61 O1           2.4160    -5.0140    -3.0040 o          1 AW4      -0.697867
     62 O2           1.8240    -4.1010    -0.9480 o          1 AW4      -0.697867
     63 O3           0.3160    -4.0210    -2.9060 o          1 AW4      -0.697867
     64 C05         -0.1900    -0.6470    -3.5390 c          1 AW4       0.688100
     65 C02         -3.1430     1.0290    -4.8710 c          1 AW4       0.748100
     66 C19         -2.1510    -2.7860    -2.7220 c3         1 AW4      -0.084700
@<TRIPOS>BOND
     1    25    24 1
     2    17    66 1
     3    66    18 1
     4    66    16 1
     5    24    26 ar
     6    24    23 ar
     7    26    27 ar
     8    16     6 1
     9    23    22 ar
    10    27    28 ar
    11     5     6 1
    12     5    65 1
    13     6    64 1
    14    22    28 ar
    15    22    21 1
    16    19    65 1
    17    19    20 1
    18    65     4 2
    19    64    15 2
    20    64     7 1
    21    21    20 1
    22     7     8 1
    23     8     9 1
    24     8    11 1
    25     9    10 1
    26    11    12 1
    27    12     3 1
    28    12     1 1
    29     3     2 1
    30     2    13 1
    31     1    14 2
    32     1    13 1
    33     2    29 1
    34     2    30 1
    35     3    31 1
    36     3    32 1
    37    66    33 1
    38     5    34 1
    39     6    35 1
    40     7    36 1
    41     8    37 1
    42     9    38 1
    43    10    39 1
    44    11    40 1
    45    11    41 1
    46    12    42 1
    47    13    43 1
    48    16    44 1
    49    16    45 1
    50    17    46 1
    51    17    47 1
    52    17    48 1
    53    18    49 1
    54    18    50 1
    55    18    51 1
    56    20    52 1
    57    20    53 1
    58    21    54 1
    59    21    55 1
    60    23    56 1
    61    26    57 1
    62    27    58 1
    63    28    59 1
    64     9    60 1
    65    60    61 1
    66    60    62 1
    67    60    63 1
@<TRIPOS>SUBSTRUCTURE
     1 AW4         1 TEMP              0 ****  ****    0 ROOT
