@<TRIPOS>MOLECULE
AW4
   66    67     1     0     0
SMALL
bcc


@<TRIPOS>ATOM
      1 C12          0.0000     0.0000     0.0000 c          1 AW4       0.625500
      2 C14          0.6390    -0.6300     2.1430 c3         1 AW4       0.039000
      3 C15          1.8920     0.0000     1.4990 c3         1 AW4      -0.030400
      4 O01         -3.8970     0.9880    -3.9180 o          1 AW4      -0.677000
      5 N03         -1.9820     0.3440    -4.8400 ns         1 AW4      -0.131900
      6 C04         -1.6830    -0.5410    -3.7110 c3         1 AW4      -0.067300
      7 N06          0.3230    -1.1960    -2.4190 ns         1 AW4      -0.176900
      8 C07          1.7690    -1.1760    -2.1890 c3         1 AW4       0.030700
      9 C08          2.4130    -2.3730    -2.8940 c3         1 AW4       0.162900
     10 O09          3.8050    -2.4210    -2.5750 oh         1 AW4      -0.551800
     11 C10          2.0480    -1.2580    -0.6870 c3         1 AW4      -0.065400
     12 C11          1.5130     0.0000     0.0000 c3         1 AW4      -0.136700
     13 N13         -0.4620    -0.3480     1.2130 ns         1 AW4      -0.199900
     14 O16         -0.6950     0.2780    -0.9540 o          1 AW4      -0.690500
     15 O17          0.5520    -0.2390    -4.4090 o          1 AW4      -0.705100
     16 C18         -2.2650    -1.9290    -3.9830 c3         1 AW4      -0.028400
     17 C20         -3.0390    -2.1990    -1.6240 c3         1 AW4       0.009400
     18 C21         -2.6010    -4.2150    -3.0330 c3         1 AW4       0.009400
     19 O22         -3.4660     1.7580    -5.9540 os         1 AW4      -0.432900
     20 C23         -4.7310     2.4690    -5.9180 c3         1 AW4       0.244400
     21 C24         -4.9250     3.2350    -7.2280 c3         1 AW4       0.014900
     22 C25         -6.2380     3.9740    -7.1890 ca         1 AW4      -0.069300
     23 C26         -7.3890     3.3580    -7.6420 ca         1 AW4      -0.093000
     24 C27         -8.5970     4.0330    -7.6010 ca         1 AW4      -0.029600
     25 Cl1        -10.0440     3.2610    -8.1700 cl         1 AW4      -0.038400
     26 C29         -8.6500     5.3250    -7.1070 ca         1 AW4      -0.108000
     27 C30         -7.4970     5.9390    -6.6540 ca         1 AW4      -0.091000
     28 C31         -6.2920     5.2640    -6.6960 ca         1 AW4      -0.094000
     29 H1           0.7720    -1.7000     2.2510 h1         1 AW4       0.016700
     30 H2           0.4420    -0.1720     3.1050 h1         1 AW4       0.016700
     31 H3           2.7660    -0.6160     1.6740 hc         1 AW4       0.026700
     32 H4           2.0430     1.0110     1.8580 hc         1 AW4       0.026700
     33 H5          -1.1210    -2.7980    -2.3850 hc         1 AW4       0.099700
     34 H6          -1.3170     0.4540    -5.5800 hn         1 AW4       0.192500
     35 H7          -2.1220    -0.1350    -2.8080 h1         1 AW4       0.094700
     36 H8          -0.2880    -1.5860    -1.7290 hn         1 AW4       0.217500
     37 H9           2.1860    -0.2580    -2.5840 h1         1 AW4       0.037700
     38 H10          2.2910    -2.2690    -3.9650 h2         1 AW4       0.051700
     39 H12          4.3070    -2.5030    -3.3690 ho         1 AW4       0.381000
     40 H13          3.1150    -1.3340    -0.5210 hc         1 AW4       0.068700
     41 H14          1.5550    -2.1310    -0.2760 hc         1 AW4       0.068700
     42 H15          1.8890     0.8930    -0.4840 hc         1 AW4       0.048700
     43 H16         -1.4290    -0.5240     1.4010 hn         1 AW4       0.188500
     44 H17         -1.7160    -2.3990    -4.7900 hc         1 AW4       0.023700
     45 H18         -3.3080    -1.8350    -4.2630 hc         1 AW4       0.023700
     46 H19         -2.6210    -1.2590    -1.2840 hc         1 AW4      -0.001133
     47 H20         -4.0480    -2.0360    -1.9830 hc         1 AW4      -0.001133
     48 H21         -3.0580    -2.9040    -0.8020 hc         1 AW4      -0.001133
     49 H22         -2.0760    -4.5770    -3.9090 hc         1 AW4      -0.001133
     50 H23         -3.6550    -4.1100    -3.2610 hc         1 AW4      -0.001133
     51 H24         -2.4760    -4.9210    -2.2210 hc         1 AW4      -0.001133
     52 H25         -4.7300     3.1660    -5.0890 h1         1 AW4       0.012200
     53 H26         -5.5410     1.7600    -5.7920 h1         1 AW4       0.012200
     54 H27         -4.9270     2.5380    -8.0570 hc         1 AW4       0.025700
     55 H28         -4.1150     3.9440    -7.3550 hc         1 AW4       0.025700
     56 H29         -7.3460     2.3480    -8.0310 ha         1 AW4       0.121000
     57 H30         -9.5950     5.8540    -7.0750 ha         1 AW4       0.110000
     58 H31         -7.5380     6.9500    -6.2670 ha         1 AW4       0.103000
     59 H32         -5.3890     5.7450    -6.3410 ha         1 AW4       0.111000
     60 S1           1.6130    -3.9030    -2.3400 s6         1 AW4       0.945800
     61 O1           2.4160    -5.0140    -3.0040 o          1 AW4      -0.648533
     62 O2           1.8240    -4.1010    -0.9480 o          1 AW4      -0.648533
     63 O3           0.3160    -4.0210    -2.9060 o          1 AW4      -0.648533
     64 C05         -0.1900    -0.6470    -3.5390 c          1 AW4       0.610100
     65 C02         -3.1430     1.0290    -4.8710 c          1 AW4       0.670100
     66 C19         -2.1510    -2.7860    -2.7220 c3         1 AW4      -0.099700
@<TRIPOS>BOND
     1     1    12 1   
     2     1    13 1   
     3     1    14 2   
     4     2     3 1   
     5     2    13 1   
     6     2    29 1   
     7     2    30 1   
     8     3    12 1   
     9     3    31 1   
    10     3    32 1   
    11     4    65 2   
    12     5     6 1   
    13     5    34 1   
    14     5    65 1   
    15     6    16 1   
    16     6    35 1   
    17     6    64 1   
    18     7     8 1   
    19     7    36 1   
    20     7    64 1   
    21     8     9 1   
    22     8    11 1   
    23     8    37 1   
    24     9    10 1   
    25     9    38 1   
    26     9    60 1   
    27    10    39 1   
    28    11    12 1   
    29    11    40 1   
    30    11    41 1   
    31    12    42 1   
    32    13    43 1   
    33    15    64 2   
    34    16    44 1   
    35    16    45 1   
    36    16    66 1   
    37    17    46 1   
    38    17    47 1   
    39    17    48 1   
    40    17    66 1   
    41    18    49 1   
    42    18    50 1   
    43    18    51 1   
    44    18    66 1   
    45    19    20 1   
    46    19    65 1   
    47    20    21 1   
    48    20    52 1   
    49    20    53 1   
    50    21    22 1   
    51    21    54 1   
    52    21    55 1   
    53    22    23 ar  
    54    22    28 ar  
    55    23    24 ar  
    56    23    56 1   
    57    24    25 1   
    58    24    26 ar  
    59    26    27 ar  
    60    26    57 1   
    61    27    28 ar  
    62    27    58 1   
    63    28    59 1   
    64    33    66 1   
    65    60    61 1   
    66    60    62 1   
    67    60    63 1   
@<TRIPOS>SUBSTRUCTURE
     1 AW4         1 TEMP              0 ****  ****    0 ROOT
