@<TRIPOS>MOLECULE
molecule
   18    18     1     0     0
SMALL
bcc


@<TRIPOS>ATOM
      1 O1           0.0000     0.0000     0.0000 o          1 AW5      -0.836300
      2 O2           1.8890     0.0000     1.1660 o          1 AW5      -0.836300
      3 C6           1.2570    -0.0000    -2.4900 ca         1 AW5      -0.109000
      4 C3           4.0340     0.0020    -2.4860 ca         1 AW5       0.060100
      5 C1           1.9510     0.0050    -3.6830 ca         1 AW5      -0.110300
      6 C2           3.3330     0.0060    -3.6850 ca         1 AW5      -0.175000
      7 C5           1.9530     0.0010    -1.2790 ca         1 AW5      -0.091600
      8 C4           3.3490     0.0010    -1.2830 ca         1 AW5      -0.115000
      9 C7           1.2150     0.0000     0.0000 c          1 AW5       0.883200
     10 H2           0.1740    -0.0000    -2.4930 ha         1 AW5       0.147000
     11 H3           3.8720     0.0090    -4.6250 ha         1 AW5       0.111000
     12 H4           3.8950    -0.0010    -0.3470 ha         1 AW5       0.163000
     13 H5           5.7080    -0.8880    -2.4930 ho         1 AW5       0.399000
     14 H6           0.3790     0.7190    -4.9310 hc         1 AW5       0.028700
     15 H7           0.8060    -0.9790    -5.1850 hc         1 AW5       0.028700
     16 H8           1.8670     0.3000    -5.7910 hc         1 AW5       0.028700
     17 O            5.3940     0.0010    -2.4940 oh         1 AW5      -0.536100
     18 C            1.1980     0.0120    -4.9890 c3         1 AW5      -0.038800
@<TRIPOS>BOND
     1    17     4 1
     2     4     8 ar
     3     4     6 ar
     4     8     7 ar
     5     1     9 1
     6     6     5 ar
     7     7     9 1
     8     7     3 ar
     9     9     2 1
    10     5     3 ar
    11     5    18 1
    12     3    10 1
    13     6    11 1
    14     8    12 1
    15    17    13 1
    16    18    14 1
    17    18    15 1
    18    18    16 1
@<TRIPOS>SUBSTRUCTURE
     1 AW5         1 TEMP              0 ****  ****    0 ROOT
