@<TRIPOS>MOLECULE
molecule
   28    30     1     0     0
SMALL
bcc


@<TRIPOS>ATOM
      1 N1           0.0000     0.0000     0.0000 nb         1 AW7      -0.768500
      2 N3          -5.6620     1.2940     7.8190 na         1 AW7      -0.042600
      3 C4           1.2570     0.0000     2.3820 ca         1 AW7       0.494200
      4 C5          -2.7030     0.1220     2.2760 ca         1 AW7       0.116100
      5 C6          -2.6720     1.3230     2.9700 ca         1 AW7      -0.127000
      6 C7          -3.3550     1.4500     4.1620 ca         1 AW7      -0.098000
      7 C8          -4.0780     0.3720     4.6670 ca         1 AW7      -0.110500
      8 C10         -3.4210    -0.9550     2.7770 ca         1 AW7      -0.127000
      9 C13         -6.0850     0.0170     7.7150 cc         1 AW7      -0.114300
     10 C1           1.9970     0.0000     1.2110 ca         1 AW7      -0.426600
     11 C2           1.3220     0.0000     0.0000 ca         1 AW7       0.494200
     12 C3          -0.6780    -0.0000     1.1370 ca         1 AW7       0.905300
     13 N2          -0.0640     0.0010     2.3090 nb         1 AW7      -0.768500
     14 O1          -2.0320     0.0000     1.1000 os         1 AW7      -0.330400
     15 C9          -4.1070    -0.8330     3.9670 ca         1 AW7      -0.098000
     16 C11         -4.8140     0.5050     5.9480 cc         1 AW7       0.395800
     17 C12         -5.5800    -0.4980     6.5730 cc         1 AW7      -0.337300
     18 N4          -4.8710     1.5850     6.7000 nd         1 AW7      -0.506800
     19 H2           1.7540     0.0010     3.3440 h4         1 AW7       0.034100
     20 H3          -2.1100     2.1610     2.5760 ha         1 AW7       0.144000
     21 H4          -3.3310     2.3880     4.7030 ha         1 AW7       0.145500
     22 H5          -3.4430    -1.8910     2.2330 ha         1 AW7       0.144000
     23 H6          -6.7160    -0.5050     8.4240 h4         1 AW7       0.169000
     24 H7           3.0800    -0.0000     1.2400 ha         1 AW7       0.148000
     25 H8           1.8700    -0.0000    -0.9340 h4         1 AW7       0.034100
     26 H9          -4.6670    -1.6740     4.3580 ha         1 AW7       0.145500
     27 H10         -5.7360    -1.5040     6.2030 ha         1 AW7       0.156000
     28 H1          -5.8800     1.9260     8.5640 hn         1 AW7       0.329700
@<TRIPOS>BOND
     1     3    10 ar
     2     3    13 ar
     3    10    11 ar
     4    13    12 ar
     5    11     1 ar
     6    12     1 ar
     7    12    14 1
     8    14     4 1
     9     4     5 ar
    10     4     8 ar
    11     5     6 ar
    12     8    15 ar
    13     6     7 ar
    14    15     7 ar
    15     7    16 1
    16    16    17 1
    17    16    18 2
    18    17     9 2
    19    18     2 1
    20     9     2 1
    21     2    28 1
    22     3    19 1
    23     5    20 1
    24     6    21 1
    25     8    22 1
    26     9    23 1
    27    10    24 1
    28    11    25 1
    29    15    26 1
    30    17    27 1
@<TRIPOS>SUBSTRUCTURE
     1 AW7         1 TEMP              0 ****  ****    0 ROOT
