@<TRIPOS>MOLECULE
AW8
   42    45     1     0     0
SMALL
bcc


@<TRIPOS>ATOM
      1 Cl1          0.0000     0.0000     0.0000 cl         1 AW8      -0.070400
      2 C16          1.7360     0.0000     0.0000 ca         1 AW8      -0.027600
      3 C14          2.4250     0.0000     1.2010 ca         1 AW8      -0.121000
      4 C12          3.8050    -0.0000     1.2070 ca         1 AW8      -0.058000
      5 C15          2.4260    -0.0060    -1.2000 ca         1 AW8      -0.121000
      6 C13          3.8050    -0.0070    -1.2060 ca         1 AW8      -0.058000
      7 C11          4.5050    -0.0010     0.0010 cp         1 AW8      -0.123500
      8 C10          5.9860    -0.0000     0.0010 cp         1 AW8       0.440800
      9 N9           6.6340     0.6580     0.9410 nb         1 AW8      -0.558000
     10 C2           7.9690     0.6920     0.9890 ca         1 AW8       0.326600
     11 C4           8.6360     1.4110     1.9960 ca         1 AW8      -0.102300
     12 C6           9.9960     1.4320     2.0260 ca         1 AW8      -0.159000
     13 C5          10.7480     0.7510     1.0680 ca         1 AW8       0.098900
     14 F27         12.0970     0.7930     1.1250 f          1 AW8      -0.139900
     15 C3          10.1380     0.0430     0.0760 ca         1 AW8      -0.128000
     16 C8           6.6820    -0.7130    -1.0040 ca         1 AW8       0.126100
     17 N19          6.0080    -1.3910    -1.9780 ne         1 AW8      -0.636100
     18 C20          6.6170    -1.8470    -3.0330 c2         1 AW8       0.544200
     19 C22          5.8450    -2.6330    -4.0610 c3         1 AW8      -0.034400
     20 N18          7.9560    -1.6150    -3.2180 nh         1 AW8      -0.397600
     21 C17          8.8210    -1.5010    -2.0330 c3         1 AW8       0.441600
     22 O21          9.1320    -2.8030    -1.5340 oh         1 AW8      -0.606800
     23 C7           8.0680    -0.7210    -0.9850 ca         1 AW8      -0.163300
     24 C1           8.7360    -0.0020     0.0140 ca         1 AW8      -0.055300
     25 C23          8.5140    -1.4840    -4.5660 c3         1 AW8       0.040800
     26 C24          8.4680    -0.0390    -4.9910 c          1 AW8       0.955600
     27 O25          8.9300     0.3210    -6.1990 o          1 AW8      -0.876300
     28 O26          8.0150     0.7960    -4.2440 o          1 AW8      -0.876300
     29 H1           1.8800     0.0000     2.1370 ha         1 AW8       0.107000
     30 H2           4.3430     0.0020     2.1470 ha         1 AW8       0.131500
     31 H3           1.8810    -0.0110    -2.1370 ha         1 AW8       0.107000
     32 H4           4.3450    -0.0100    -2.1460 ha         1 AW8       0.131500
     33 H5           8.0680     1.9450     2.7480 ha         1 AW8       0.109000
     34 H6          10.5040     1.9880     2.8050 ha         1 AW8       0.108000
     35 H7          10.7320    -0.4820    -0.6630 ha         1 AW8       0.122000
     36 H8           4.9620    -3.0590    -3.6010 hc         1 AW8       0.019367
     37 H9           5.5500    -1.9770    -4.8710 hc         1 AW8       0.019367
     38 H10          6.4690    -3.4290    -4.4500 hc         1 AW8       0.019367
     39 H11          9.7310    -0.9760    -2.2940 h2         1 AW8       0.035700
     40 H12         10.0180    -3.0260    -1.7670 ho         1 AW8       0.385000
     41 H13          9.5410    -1.8280    -4.5670 h1         1 AW8       0.023200
     42 H14          7.9320    -2.0820    -5.2570 h1         1 AW8       0.023200
@<TRIPOS>BOND
     1     1     2 1   
     2     2     3 ar  
     3     2     5 ar  
     4     3     4 ar  
     5     3    29 1   
     6     4     7 ar  
     7     4    30 1   
     8     5     6 ar  
     9     5    31 1   
    10     6     7 ar  
    11     6    32 1   
    12     7     8 1   
    13     8     9 ar  
    14     8    16 ar  
    15     9    10 ar  
    16    10    11 ar  
    17    10    24 ar  
    18    11    12 ar  
    19    11    33 1   
    20    12    13 ar  
    21    12    34 1   
    22    13    14 1   
    23    13    15 ar  
    24    15    24 ar  
    25    15    35 1   
    26    16    17 1   
    27    16    23 ar  
    28    17    18 2   
    29    18    19 1   
    30    18    20 1   
    31    19    36 1   
    32    19    37 1   
    33    19    38 1   
    34    20    21 1   
    35    20    25 1   
    36    21    22 1   
    37    21    23 1   
    38    21    39 1   
    39    22    40 1   
    40    23    24 ar  
    41    25    26 1   
    42    25    41 1   
    43    25    42 1   
    44    26    27 1   
    45    26    28 1   
@<TRIPOS>SUBSTRUCTURE
     1 AW8         1 TEMP              0 ****  ****    0 ROOT
