@<TRIPOS>MOLECULE
molecule
   42    45     1     0     0
SMALL
bcc


@<TRIPOS>ATOM
      1 Cl1          0.0000     0.0000     0.0000 cl         1 AW8      -0.142400
      2 C16          1.7360     0.0000     0.0000 ca         1 AW8       0.030400
      3 C14          2.4250     0.0000     1.2010 ca         1 AW8      -0.143500
      4 C12          3.8050    -0.0000     1.2070 ca         1 AW8      -0.076500
      5 C15          2.4260    -0.0060    -1.2000 ca         1 AW8      -0.143500
      6 C13          3.8050    -0.0070    -1.2060 ca         1 AW8      -0.076500
      7 C11          4.5050    -0.0010     0.0010 cp         1 AW8      -0.120500
      8 C10          5.9860    -0.0000     0.0010 cp         1 AW8       0.494800
      9 N9           6.6340     0.6580     0.9410 nb         1 AW8      -0.677000
     10 C2           7.9690     0.6920     0.9890 ca         1 AW8       0.376600
     11 C4           8.6360     1.4110     1.9960 ca         1 AW8      -0.128300
     12 C6           9.9960     1.4320     2.0260 ca         1 AW8      -0.184000
     13 C5          10.7480     0.7510     1.0680 ca         1 AW8       0.128900
     14 F27         12.0970     0.7930     1.1250 f          1 AW8      -0.153900
     15 C3          10.1380     0.0430     0.0760 ca         1 AW8      -0.158000
     16 C8           6.6820    -0.7130    -1.0040 ca         1 AW8       0.143100
     17 N19          6.0080    -1.3910    -1.9780 ne         1 AW8      -0.721100
     18 C20          6.6170    -1.8470    -3.0330 c2         1 AW8       0.713200
     19 C22          5.8450    -2.6330    -4.0610 c3         1 AW8      -0.126400
     20 N18          7.9560    -1.6150    -3.2180 nh         1 AW8      -0.772600
     21 C17          8.8210    -1.5010    -2.0330 c3         1 AW8       0.498600
     22 O21          9.1320    -2.8030    -1.5340 oh         1 AW8      -0.621800
     23 C7           8.0680    -0.7210    -0.9850 ca         1 AW8      -0.131300
     24 C1           8.7360    -0.0020     0.0140 ca         1 AW8      -0.074300
     25 C23          8.5140    -1.4840    -4.5660 c3         1 AW8       0.106800
     26 C24          8.4680    -0.0390    -4.9910 c          1 AW8       0.866600
     27 O25          8.9300     0.3210    -6.1990 o          1 AW8      -0.826800
     28 O26          8.0150     0.7960    -4.2440 o          1 AW8      -0.826800
     29 H1           1.8800     0.0000     2.1370 ha         1 AW8       0.135000
     30 H2           4.3430     0.0020     2.1470 ha         1 AW8       0.162500
     31 H3           1.8810    -0.0110    -2.1370 ha         1 AW8       0.135000
     32 H4           4.3450    -0.0100    -2.1460 ha         1 AW8       0.162500
     33 H5           8.0680     1.9450     2.7480 ha         1 AW8       0.142000
     34 H6          10.5040     1.9880     2.8050 ha         1 AW8       0.133000
     35 H7          10.7320    -0.4820    -0.6630 ha         1 AW8       0.142000
     36 H8           4.9620    -3.0590    -3.6010 hc         1 AW8       0.058700
     37 H9           5.5500    -1.9770    -4.8710 hc         1 AW8       0.058700
     38 H10          6.4690    -3.4290    -4.4500 hc         1 AW8       0.058700
     39 H11          9.7310    -0.9760    -2.2940 h2         1 AW8       0.073700
     40 H12         10.0180    -3.0260    -1.7670 ho         1 AW8       0.396000
     41 H13          9.5410    -1.8280    -4.5670 h1         1 AW8       0.044200
     42 H14          7.9320    -2.0820    -5.2570 h1         1 AW8       0.044200
@<TRIPOS>BOND
     1     1     2 1
     2     2     5 ar
     3     2     3 ar
     4    19    18 1
     5     5     6 ar
     6     3     4 ar
     7     6     7 ar
     8    18    17 2
     9    18    20 1
    10    17    16 1
    11     4     7 ar
    12     7     8 1
    13    25    20 1
    14    25    26 1
    15    20    21 1
    16    26    28 1
    17    26    27 1
    18    16     8 ar
    19    16    23 ar
    20     8     9 ar
    21    21    23 1
    22    21    22 1
    23    23    24 ar
    24     9    10 ar
    25    10    24 ar
    26    10    11 ar
    27    24    15 ar
    28    11    12 ar
    29    15    13 ar
    30    12    13 ar
    31    13    14 1
    32     3    29 1
    33     4    30 1
    34     5    31 1
    35     6    32 1
    36    11    33 1
    37    12    34 1
    38    15    35 1
    39    19    36 1
    40    19    37 1
    41    19    38 1
    42    21    39 1
    43    22    40 1
    44    25    41 1
    45    25    42 1
@<TRIPOS>SUBSTRUCTURE
     1 AW8         1 TEMP              0 ****  ****    0 ROOT
