@<TRIPOS>MOLECULE
molecule
   29    30     1     0     0
SMALL
bcc


@<TRIPOS>ATOM
      1 N1           0.0000     0.0000     0.0000 ne         1 AWA      -0.630100
      2 C4           1.5170    -0.6730     4.3800 ca         1 AWA      -0.085000
      3 C5           1.8440     0.4970     3.7190 ca         1 AWA      -0.122300
      4 C6           2.6970     1.4120     4.3080 ca         1 AWA      -0.085000
      5 C7           3.2250     1.1590     5.5590 ca         1 AWA      -0.195500
      6 C8           1.2690     0.7740     2.3530 c3         1 AWA       0.146000
      7 C10          1.2950     0.0000     0.0000 cf         1 AWA       0.473300
      8 C1           3.0370    -1.4910     8.0820 c3         1 AWA       0.132700
      9 C2           2.8990    -0.0140     6.2250 ca         1 AWA       0.141100
     10 C3           2.0420    -0.9300     5.6320 ca         1 AWA      -0.195500
     11 C9           2.0630     0.0000     1.2970 c3         1 AWA      -0.191700
     12 C11         -0.7070     0.0230     1.1410 c          1 AWA       0.838900
     13 O2          -1.8910    -0.2490     1.1150 o          1 AWA      -0.655500
     14 N2          -0.1310     0.3430     2.3140 ns         1 AWA      -0.627900
     15 C12          2.0310    -0.0010    -1.2890 c          1 AWA       0.786300
     16 O3           1.3520    -0.0020    -2.4520 o          1 AWA      -0.798800
     17 O4           3.2440    -0.0010    -1.2960 o          1 AWA      -0.798800
     18 H1           0.8700    -1.4010     3.9050 ha         1 AWA       0.142000
     19 H2           2.9450     2.3310     3.7920 ha         1 AWA       0.142000
     20 H3           3.8840     1.8810     6.0250 ha         1 AWA       0.136000
     21 H4           1.3260     1.8350     2.1400 h1         1 AWA       0.052700
     22 H5           3.3440    -2.3230     7.4600 h1         1 AWA       0.037367
     23 H6           1.9610    -1.5140     8.2100 h1         1 AWA       0.037367
     24 H7           3.5170    -1.5660     9.0500 h1         1 AWA       0.037367
     25 H8           1.6870    -1.8770     6.0190 ha         1 AWA       0.136000
     26 H9           2.0840    -1.0300     1.6330 hc         1 AWA       0.086700
     27 H10          2.9620     0.5760     1.1150 hc         1 AWA       0.086700
     28 H11         -0.6600     0.2860     3.1610 hn         1 AWA       0.311500
     29 O1           3.4160    -0.2640     7.4560 os         1 AWA      -0.336900
@<TRIPOS>BOND
     1    13    12 2
     2    12    14 1
     3    12     1 1
     4    14     6 1
     5     1     7 2
     6     6    11 1
     7     6     3 1
     8     7    11 1
     9     7    15 1
    10    17    15 1
    11    15    16 1
    12     3     4 ar
    13     3     2 ar
    14     4     5 ar
    15     2    10 ar
    16     5     9 ar
    17    10     9 ar
    18     9    29 1
    19    29     8 1
    20     2    18 1
    21     4    19 1
    22     5    20 1
    23     6    21 1
    24     8    22 1
    25     8    23 1
    26     8    24 1
    27    10    25 1
    28    11    26 1
    29    11    27 1
    30    14    28 1
@<TRIPOS>SUBSTRUCTURE
     1 AWA         1 TEMP              0 ****  ****    0 ROOT
