@<TRIPOS>MOLECULE
AWA
   29    30     1     0     0
SMALL
bcc


@<TRIPOS>ATOM
      1 N1           0.0000     0.0000     0.0000 ne         1 AWA      -0.528100
      2 C4           1.5170    -0.6730     4.3800 ca         1 AWA      -0.053500
      3 C5           1.8440     0.4970     3.7190 ca         1 AWA      -0.133300
      4 C6           2.6970     1.4120     4.3080 ca         1 AWA      -0.053500
      5 C7           3.2250     1.1590     5.5590 ca         1 AWA      -0.181000
      6 C8           1.2690     0.7740     2.3530 c3         1 AWA       0.073000
      7 C10          1.2950     0.0000     0.0000 cf         1 AWA       0.409300
      8 C1           3.0370    -1.4910     8.0820 c3         1 AWA       0.246700
      9 C2           2.8990    -0.0140     6.2250 ca         1 AWA       0.154100
     10 C3           2.0420    -0.9300     5.6320 ca         1 AWA      -0.181000
     11 C9           2.0630     0.0000     1.2970 c3         1 AWA      -0.127700
     12 C11         -0.7070     0.0230     1.1410 c          1 AWA       0.730900
     13 O2          -1.8910    -0.2490     1.1150 o          1 AWA      -0.698500
     14 N2          -0.1310     0.3430     2.3140 ns         1 AWA      -0.266900
     15 C12          2.0310    -0.0010    -1.2890 c          1 AWA       0.870300
     16 O3           1.3520    -0.0020    -2.4520 o          1 AWA      -0.854800
     17 O4           3.2440    -0.0010    -1.2960 o          1 AWA      -0.854800
     18 H1           0.8700    -1.4010     3.9050 ha         1 AWA       0.112500
     19 H2           2.9450     2.3310     3.7920 ha         1 AWA       0.112500
     20 H3           3.8840     1.8810     6.0250 ha         1 AWA       0.115500
     21 H4           1.3260     1.8350     2.1400 h1         1 AWA       0.027700
     22 H5           3.3440    -2.3230     7.4600 h1         1 AWA      -0.005967
     23 H6           1.9610    -1.5140     8.2100 h1         1 AWA      -0.005967
     24 H7           3.5170    -1.5660     9.0500 h1         1 AWA      -0.005967
     25 H8           1.6870    -1.8770     6.0190 ha         1 AWA       0.115500
     26 H9           2.0840    -1.0300     1.6330 hc         1 AWA       0.057200
     27 H10          2.9620     0.5760     1.1150 hc         1 AWA       0.057200
     28 H11         -0.6600     0.2860     3.1610 hn         1 AWA       0.183500
     29 O1           3.4160    -0.2640     7.4560 os         1 AWA      -0.314900
@<TRIPOS>BOND
     1     1     7 2   
     2     1    12 1   
     3     2     3 ar  
     4     2    10 ar  
     5     2    18 1   
     6     3     4 ar  
     7     3     6 1   
     8     4     5 ar  
     9     4    19 1   
    10     5     9 ar  
    11     5    20 1   
    12     6    11 1   
    13     6    14 1   
    14     6    21 1   
    15     7    11 1   
    16     7    15 1   
    17     8    22 1   
    18     8    23 1   
    19     8    24 1   
    20     8    29 1   
    21     9    10 ar  
    22     9    29 1   
    23    10    25 1   
    24    11    26 1   
    25    11    27 1   
    26    12    13 2   
    27    12    14 1   
    28    14    28 1   
    29    15    16 1   
    30    15    17 1   
@<TRIPOS>SUBSTRUCTURE
     1 AWA         1 TEMP              0 ****  ****    0 ROOT
