@<TRIPOS>MOLECULE
molecule
   79    80     1     0     0
SMALL
bcc


@<TRIPOS>ATOM
      1 C            0.0000     0.0000     0.0000 c3         1 AWB      -0.092100
      2 N            6.6070    -1.8310     7.2650 ns         1 AWB      -0.641900
      3 O            9.0310    -1.1900     5.8830 os         1 AWB      -0.389900
      4 C1           1.5300     0.0000     0.0000 c3         1 AWB      -0.084400
      5 N1           4.0580     0.2550    12.4110 ns         1 AWB      -0.483100
      6 C2           2.0410     0.0000     1.4420 c3         1 AWB      -0.081400
      7 O2           6.4660    -2.4310     4.5130 os         1 AWB      -0.414900
      8 C3           3.5710    -0.0010     1.4410 c3         1 AWB      -0.080400
      9 C4           4.0820     0.0000     2.8830 c3         1 AWB      -0.087400
     10 O4           6.6450    -2.7790     9.2730 o          1 AWB      -0.589100
     11 C5           5.6120    -0.0010     2.8820 c3         1 AWB      -0.073400
     12 O5           3.8180     2.4610    12.4430 o          1 AWB      -0.599100
     13 C6           6.1220     0.0000     4.3250 c3         1 AWB      -0.125700
     14 O6           5.5510    -1.8060    11.3010 oh         1 AWB      -0.489100
     15 C7           7.6700     0.1260     4.3500 c3         1 AWB       0.124100
     16 O7           8.0690     1.4490     3.9070 os         1 AWB      -0.426900
     17 C8           8.1030    -0.0940     5.8120 c3         1 AWB       0.111100
     18 O8           9.9410     0.5710     3.1270 o          1 AWB      -0.521000
     19 C9           8.7290    -2.3980     6.2750 c          1 AWB       0.727600
     20 C10          7.3950    -2.9220     6.6860 c3         1 AWB      -0.016300
     21 C11          6.6440    -3.5030     5.4840 c3         1 AWB       0.145100
     22 C12          5.8340    -1.3390     4.9890 c          1 AWB       0.715600
     23 C13          5.2800    -4.0320     5.9290 c3         1 AWB      -0.121100
     24 C15          5.4890    -0.7550     9.1560 ca         1 AWB      -0.145600
     25 C16          5.1510    -0.7750    10.5140 ca         1 AWB       0.134100
     26 C17          4.4010     0.2680    11.0530 ca         1 AWB      -0.004400
     27 C18          3.9950     1.3180    10.2440 ca         1 AWB      -0.102000
     28 C19          4.3290     1.3360     8.9010 ca         1 AWB      -0.137000
     29 C20          5.0750     0.3140     8.3550 ca         1 AWB      -0.103000
     30 C21          3.8120     1.4150    13.0550 c          1 AWB       0.659900
     31 C22          8.7730     1.1760     6.3400 c3         1 AWB      -0.104100
     32 C23          9.2570     1.5540     3.2900 c          1 AWB       0.623100
     33 C24          9.7370     2.8960     2.8020 c3         1 AWB      -0.119400
     34 C25         11.1090     2.7380     2.1420 c3         1 AWB      -0.066700
     35 C26         10.9720     1.8750     0.8860 c3         1 AWB      -0.087600
     36 C27         11.6520     4.1160     1.7580 c3         1 AWB      -0.087600
     37 H           -0.3610     0.8480     0.5690 hc         1 AWB       0.033700
     38 HA          -0.3610     0.0690    -1.0190 hc         1 AWB       0.033700
     39 HB          -0.3610    -0.9170     0.4500 hc         1 AWB       0.033700
     40 HN           6.2620    -1.0980     6.6770 hn         1 AWB       0.363500
     41 H1           1.8910    -0.8840    -0.5110 hc         1 AWB       0.040200
     42 H1A          1.8910     0.8840    -0.5110 hc         1 AWB       0.040200
     43 HN1          3.9550    -0.6160    12.8930 hn         1 AWB       0.334500
     44 H2           1.6800    -0.8840     1.9530 hc         1 AWB       0.042700
     45 H2A          1.6810     0.8850     1.9520 hc         1 AWB       0.042700
     46 H3           3.9330     0.8830     0.9290 hc         1 AWB       0.043700
     47 H3A          3.9320    -0.8860     0.9300 hc         1 AWB       0.043700
     48 H4           3.7210     0.8850     3.3930 hc         1 AWB       0.047700
     49 H4A          3.7200    -0.8840     3.3950 hc         1 AWB       0.047700
     50 H5           5.9730     0.8830     2.3710 hc         1 AWB       0.064700
     51 H5A          5.9730    -0.8860     2.3720 hc         1 AWB       0.064700
     52 H6           5.6710     0.8050     4.8910 hc         1 AWB       0.097700
     53 HO6          6.1730    -1.4930    11.9370 ho         1 AWB       0.421000
     54 H7           8.1130    -0.6320     3.7160 h1         1 AWB       0.113700
     55 H8           7.2310    -0.3230     6.4130 h1         1 AWB       0.068700
     56 H10          7.5330    -3.7000     7.4270 h1         1 AWB       0.144700
     57 H11          7.2270    -4.3030     5.0420 h1         1 AWB       0.110700
     58 H13          5.3910    -5.0370     6.3160 hc         1 AWB       0.062033
     59 H13A         4.6030    -4.0430     5.0830 hc         1 AWB       0.062033
     60 H13B         4.8790    -3.3890     6.7030 hc         1 AWB       0.062033
     61 H18          3.4080     2.1260    10.6650 ha         1 AWB       0.185000
     62 H19          4.0090     2.1620     8.2770 ha         1 AWB       0.138000
     63 H20          5.3330     0.3340     7.3030 ha         1 AWB       0.130000
     64 H21          3.5960     1.4090    14.1170 h5         1 AWB       0.036200
     65 H22          9.8440     1.1100     6.1850 hc         1 AWB       0.061700
     66 H22A         8.5670     1.2800     7.3980 hc         1 AWB       0.061700
     67 H22B         8.3840     2.0370     5.8090 hc         1 AWB       0.061700
     68 H24          9.0330     3.2920     2.0810 hc         1 AWB       0.071700
     69 H24A         9.8170     3.5780     3.6410 hc         1 AWB       0.071700
     70 H25         11.7910     2.2610     2.8350 hc         1 AWB       0.070700
     71 H26         11.4680     2.3650     0.0560 hc         1 AWB       0.038200
     72 H26A        11.4290     0.9090     1.0600 hc         1 AWB       0.038200
     73 H26B         9.9230     1.7420     0.6510 hc         1 AWB       0.038200
     74 H27         12.6780     4.0190     1.4240 hc         1 AWB       0.038200
     75 H27A        11.0500     4.5320     0.9590 hc         1 AWB       0.038200
     76 H27B        11.6130     4.7720     2.6190 hc         1 AWB       0.038200
     77 C14          6.2830    -1.8530     8.5730 c          1 AWB       0.676700
     78 O1           9.6430    -3.1880     6.3110 o          1 AWB      -0.579500
     79 O3           5.0630    -1.4200     5.9160 o          1 AWB      -0.601500
@<TRIPOS>BOND
     1     1     4 1
     2     2    20 1
     3     2    77 1
     4     3    17 1
     5     3    19 1
     6     4     6 1
     7     5    26 1
     8     5    30 1
     9    78    19 2
    10     6     8 1
    11     7    21 1
    12     7    22 1
    13     8     9 1
    14    79    22 2
    15     9    11 1
    16    10    77 2
    17    11    13 1
    18    12    30 2
    19    13    15 1
    20    13    22 1
    21    14    25 1
    22    15    16 1
    23    15    17 1
    24    16    32 1
    25    17    31 1
    26    18    32 2
    27    19    20 1
    28    20    21 1
    29    21    23 1
    30    77    24 1
    31    24    25 ar
    32    24    29 ar
    33    25    26 ar
    34    26    27 ar
    35    27    28 ar
    36    28    29 ar
    37    32    33 1
    38    33    34 1
    39    34    35 1
    40    34    36 1
    41     1    37 1
    42     1    38 1
    43     1    39 1
    44     2    40 1
    45     4    41 1
    46     4    42 1
    47     5    43 1
    48     6    44 1
    49     6    45 1
    50     8    46 1
    51     8    47 1
    52     9    48 1
    53     9    49 1
    54    11    50 1
    55    11    51 1
    56    13    52 1
    57    14    53 1
    58    15    54 1
    59    17    55 1
    60    20    56 1
    61    21    57 1
    62    23    58 1
    63    23    59 1
    64    23    60 1
    65    27    61 1
    66    28    62 1
    67    29    63 1
    68    30    64 1
    69    31    65 1
    70    31    66 1
    71    31    67 1
    72    33    68 1
    73    33    69 1
    74    34    70 1
    75    35    71 1
    76    35    72 1
    77    35    73 1
    78    36    74 1
    79    36    75 1
    80    36    76 1
@<TRIPOS>SUBSTRUCTURE
     1 AWB         1 TEMP              0 ****  ****    0 ROOT
