@<TRIPOS>MOLECULE
AWB
   79    80     1     0     0
SMALL
bcc


@<TRIPOS>ATOM
      1 C            0.0000     0.0000     0.0000 c3         1 AWB       0.006900
      2 N            6.6070    -1.8310     7.2650 ns         1 AWB      -0.363900
      3 O            9.0310    -1.1900     5.8830 os         1 AWB      -0.356900
      4 C1           1.5300     0.0000     0.0000 c3         1 AWB      -0.028400
      5 N1           4.0580     0.2550    12.4110 ns         1 AWB      -0.050100
      6 C2           2.0410     0.0000     1.4420 c3         1 AWB      -0.029400
      7 O2           6.4660    -2.4310     4.5130 os         1 AWB      -0.399900
      8 C3           3.5710    -0.0010     1.4410 c3         1 AWB      -0.026400
      9 C4           4.0820     0.0000     2.8830 c3         1 AWB      -0.036400
     10 O4           6.6450    -2.7790     9.2730 o          1 AWB      -0.626100
     11 C5           5.6120    -0.0010     2.8820 c3         1 AWB      -0.020400
     12 O5           3.8180     2.4610    12.4430 o          1 AWB      -0.639100
     13 C6           6.1220     0.0000     4.3250 c3         1 AWB      -0.116700
     14 O6           5.5510    -1.8060    11.3010 oh         1 AWB      -0.463100
     15 C7           7.6700     0.1260     4.3500 c3         1 AWB       0.154100
     16 O7           8.0690     1.4490     3.9070 os         1 AWB      -0.402900
     17 C8           8.1030    -0.0940     5.8120 c3         1 AWB       0.100100
     18 O8           9.9410     0.5710     3.1270 o          1 AWB      -0.557000
     19 C9           8.7290    -2.3980     6.2750 c          1 AWB       0.773600
     20 C10          7.3950    -2.9220     6.6860 c3         1 AWB      -0.099300
     21 C11          6.6440    -3.5030     5.4840 c3         1 AWB       0.198100
     22 C12          5.8340    -1.3390     4.9890 c          1 AWB       0.778600
     23 C13          5.2800    -4.0320     5.9290 c3         1 AWB      -0.051100
     24 C15          5.4890    -0.7550     9.1560 ca         1 AWB      -0.165600
     25 C16          5.1510    -0.7750    10.5140 ca         1 AWB       0.163100
     26 C17          4.4010     0.2680    11.0530 ca         1 AWB      -0.159400
     27 C18          3.9950     1.3180    10.2440 ca         1 AWB      -0.081000
     28 C19          4.3290     1.3360     8.9010 ca         1 AWB      -0.110000
     29 C20          5.0750     0.3140     8.3550 ca         1 AWB      -0.082000
     30 C21          3.8120     1.4150    13.0550 c          1 AWB       0.606900
     31 C22          8.7730     1.1760     6.3400 c3         1 AWB      -0.023100
     32 C23          9.2570     1.5540     3.2900 c          1 AWB       0.682100
     33 C24          9.7370     2.8960     2.8020 c3         1 AWB      -0.065400
     34 C25         11.1090     2.7380     2.1420 c3         1 AWB      -0.044700
     35 C26         10.9720     1.8750     0.8860 c3         1 AWB       0.003400
     36 C27         11.6520     4.1160     1.7580 c3         1 AWB       0.003400
     37 H           -0.3610     0.8480     0.5690 hc         1 AWB       0.001367
     38 HA          -0.3610     0.0690    -1.0190 hc         1 AWB       0.001367
     39 HB          -0.3610    -0.9170     0.4500 hc         1 AWB       0.001367
     40 HN           6.2620    -1.0980     6.6770 hn         1 AWB       0.286500
     41 H1           1.8910    -0.8840    -0.5110 hc         1 AWB       0.012200
     42 H1A          1.8910     0.8840    -0.5110 hc         1 AWB       0.012200
     43 HN1          3.9550    -0.6160    12.8930 hn         1 AWB       0.178500
     44 H2           1.6800    -0.8840     1.9530 hc         1 AWB       0.016200
     45 H2A          1.6810     0.8850     1.9520 hc         1 AWB       0.016200
     46 H3           3.9330     0.8830     0.9290 hc         1 AWB       0.016700
     47 H3A          3.9320    -0.8860     0.9300 hc         1 AWB       0.016700
     48 H4           3.7210     0.8850     3.3930 hc         1 AWB       0.020200
     49 H4A          3.7200    -0.8840     3.3950 hc         1 AWB       0.020200
     50 H5           5.9730     0.8830     2.3710 hc         1 AWB       0.033700
     51 H5A          5.9730    -0.8860     2.3720 hc         1 AWB       0.033700
     52 H6           5.6710     0.8050     4.8910 hc         1 AWB       0.067700
     53 HO6          6.1730    -1.4930    11.9370 ho         1 AWB       0.400000
     54 H7           8.1130    -0.6320     3.7160 h1         1 AWB       0.080700
     55 H8           7.2310    -0.3230     6.4130 h1         1 AWB       0.049700
     56 H10          7.5330    -3.7000     7.4270 h1         1 AWB       0.115700
     57 H11          7.2270    -4.3030     5.0420 h1         1 AWB       0.065700
     58 H13          5.3910    -5.0370     6.3160 hc         1 AWB       0.032033
     59 H13A         4.6030    -4.0430     5.0830 hc         1 AWB       0.032033
     60 H13B         4.8790    -3.3890     6.7030 hc         1 AWB       0.032033
     61 H18          3.4080     2.1260    10.6650 ha         1 AWB       0.165000
     62 H19          4.0090     2.1620     8.2770 ha         1 AWB       0.107000
     63 H20          5.3330     0.3340     7.3030 ha         1 AWB       0.108000
     64 H21          3.5960     1.4090    14.1170 h5         1 AWB      -0.014800
     65 H22          9.8440     1.1100     6.1850 hc         1 AWB       0.028033
     66 H22A         8.5670     1.2800     7.3980 hc         1 AWB       0.028033
     67 H22B         8.3840     2.0370     5.8090 hc         1 AWB       0.028033
     68 H24          9.0330     3.2920     2.0810 hc         1 AWB       0.038200
     69 H24A         9.8170     3.5780     3.6410 hc         1 AWB       0.038200
     70 H25         11.7910     2.2610     2.8350 hc         1 AWB       0.043700
     71 H26         11.4680     2.3650     0.0560 hc         1 AWB       0.006533
     72 H26A        11.4290     0.9090     1.0600 hc         1 AWB       0.006533
     73 H26B         9.9230     1.7420     0.6510 hc         1 AWB       0.006533
     74 H27         12.6780     4.0190     1.4240 hc         1 AWB       0.006533
     75 H27A        11.0500     4.5320     0.9590 hc         1 AWB       0.006533
     76 H27B        11.6130     4.7720     2.6190 hc         1 AWB       0.006533
     77 C14          6.2830    -1.8530     8.5730 c          1 AWB       0.630700
     78 O1           9.6430    -3.1880     6.3110 o          1 AWB      -0.617500
     79 O3           5.0630    -1.4200     5.9160 o          1 AWB      -0.634500
@<TRIPOS>BOND
     1     1     4 1   
     2     1    37 1   
     3     1    38 1   
     4     1    39 1   
     5     2    20 1   
     6     2    40 1   
     7     2    77 1   
     8     3    17 1   
     9     3    19 1   
    10     4     6 1   
    11     4    41 1   
    12     4    42 1   
    13     5    26 1   
    14     5    30 1   
    15     5    43 1   
    16     6     8 1   
    17     6    44 1   
    18     6    45 1   
    19     7    21 1   
    20     7    22 1   
    21     8     9 1   
    22     8    46 1   
    23     8    47 1   
    24     9    11 1   
    25     9    48 1   
    26     9    49 1   
    27    10    77 2   
    28    11    13 1   
    29    11    50 1   
    30    11    51 1   
    31    12    30 2   
    32    13    15 1   
    33    13    22 1   
    34    13    52 1   
    35    14    25 1   
    36    14    53 1   
    37    15    16 1   
    38    15    17 1   
    39    15    54 1   
    40    16    32 1   
    41    17    31 1   
    42    17    55 1   
    43    18    32 2   
    44    19    20 1   
    45    19    78 2   
    46    20    21 1   
    47    20    56 1   
    48    21    23 1   
    49    21    57 1   
    50    22    79 2   
    51    23    58 1   
    52    23    59 1   
    53    23    60 1   
    54    24    25 ar  
    55    24    29 ar  
    56    24    77 1   
    57    25    26 ar  
    58    26    27 ar  
    59    27    28 ar  
    60    27    61 1   
    61    28    29 ar  
    62    28    62 1   
    63    29    63 1   
    64    30    64 1   
    65    31    65 1   
    66    31    66 1   
    67    31    67 1   
    68    32    33 1   
    69    33    34 1   
    70    33    68 1   
    71    33    69 1   
    72    34    35 1   
    73    34    36 1   
    74    34    70 1   
    75    35    71 1   
    76    35    72 1   
    77    35    73 1   
    78    36    74 1   
    79    36    75 1   
    80    36    76 1   
@<TRIPOS>SUBSTRUCTURE
     1 AWB         1 TEMP              0 ****  ****    0 ROOT
