@<TRIPOS>MOLECULE
molecule
   33    34     1     0     0
SMALL
bcc


@<TRIPOS>ATOM
      1 N1           0.0000     0.0000     0.0000 n3         1 AWD      -0.731600
      2 N3           1.5300    -3.0820     3.4200 ns         1 AWD      -0.496100
      3 C4           1.9780     0.0000     1.4460 c3         1 AWD       0.117500
      4 C5           1.4700     0.0000     0.0000 c3         1 AWD       0.143300
      5 C7           2.3220    -4.0430     4.0620 ca         1 AWD       0.056600
      6 C8           1.9880    -5.3870     3.9780 ca         1 AWD      -0.120000
      7 C10          3.8880    -5.9400     5.3300 ca         1 AWD       0.114900
      8 C1          -0.5260     0.1730    -1.3610 c3         1 AWD       0.153100
      9 C2          -0.5330    -1.2200     0.6190 c3         1 AWD       0.143300
     10 C3          -0.1060    -1.2710     2.0900 c3         1 AWD       0.117500
     11 N2           1.3550    -1.1260     2.1580 n          1 AWD      -0.507800
     12 O1           3.3010    -1.8160     2.9800 o          1 AWD      -0.650100
     13 C9           2.7710    -6.3330     4.6120 ca         1 AWD      -0.152500
     14 C11          4.2290    -4.6010     5.4050 ca         1 AWD      -0.152500
     15 C12          3.4460    -3.6510     4.7770 ca         1 AWD      -0.120000
     16 F1           4.6520    -6.8670     5.9490 f          1 AWD      -0.143900
     17 H2           0.5330    -3.1770     3.4170 hn         1 AWD       0.322500
     18 H3           1.7030     0.9310     1.9270 h1         1 AWD       0.059950
     19 H4           3.0550    -0.1170     1.4530 h1         1 AWD       0.059950
     20 H5           1.8300     0.8860    -0.5080 h1         1 AWD       0.043450
     21 H6           1.8300    -0.8860    -0.5080 h1         1 AWD       0.043450
     22 H7           1.1140    -5.6950     3.4170 ha         1 AWD       0.154000
     23 H8          -0.1480     1.0980    -1.7790 h1         1 AWD       0.034700
     24 H9          -1.6080     0.2070    -1.3280 h1         1 AWD       0.034700
     25 H10         -0.2090    -0.6580    -1.9790 h1         1 AWD       0.034700
     26 H11         -1.6140    -1.2130     0.5580 h1         1 AWD       0.043450
     27 H12         -0.1420    -2.0880     0.1010 h1         1 AWD       0.043450
     28 H13         -0.3970    -2.2210     2.5210 h1         1 AWD       0.059950
     29 H14         -0.5770    -0.4600     2.6330 h1         1 AWD       0.059950
     30 H15          2.5080    -7.3830     4.5510 ha         1 AWD       0.147000
     31 H16          5.1050    -4.2960     5.9650 ha         1 AWD       0.147000
     32 H17          3.7130    -2.6030     4.8360 ha         1 AWD       0.154000
     33 C6           2.1050    -2.0010     2.8580 c          1 AWD       0.789100
@<TRIPOS>BOND
     1    16     7 1
     2    14     7 ar
     3    14    15 ar
     4     7    13 ar
     5    15     5 ar
     6    13     6 ar
     7     5     6 ar
     8     5     2 1
     9     2    33 1
    10     3     4 1
    11     3    11 1
    12     4     1 1
    13    33    11 1
    14    33    12 2
    15    11    10 1
    16    10     9 1
    17     1     8 1
    18     1     9 1
    19     2    17 1
    20     3    18 1
    21     3    19 1
    22     4    20 1
    23     4    21 1
    24     6    22 1
    25     8    23 1
    26     8    24 1
    27     8    25 1
    28     9    26 1
    29     9    27 1
    30    10    28 1
    31    10    29 1
    32    13    30 1
    33    14    31 1
    34    15    32 1
@<TRIPOS>SUBSTRUCTURE
     1 AWD         1 TEMP              0 ****  ****    0 ROOT
