@<TRIPOS>MOLECULE
AWE
   28    29     1     0     0
SMALL
bcc


@<TRIPOS>ATOM
      1 C1           0.0000     0.0000     0.0000 ca         1 AWE      -0.215300
      2 C2           1.3830     0.0000     0.0000 ca         1 AWE      -0.067000
      3 C3           2.0760     0.0000     1.1930 ca         1 AWE      -0.069000
      4 C4           1.3800     0.0010     2.4010 cp         1 AWE       0.048000
      5 C5          -0.0140     0.0010     2.3950 ca         1 AWE      -0.044600
      6 C6          -0.6970     0.0010     1.1940 ca         1 AWE      -0.066000
      7 C11          3.8240    -0.9200     5.1070 ca         1 AWE       0.117900
      8 C10          3.4980     0.0020     6.0900 ca         1 AWE      -0.102000
      9 C9           2.4870     0.9210     5.8750 ca         1 AWE      -0.061000
     10 C8           1.7980     0.9250     4.6800 ca         1 AWE      -0.094000
     11 C12          3.1420    -0.9200     3.9050 ca         1 AWE      -0.114000
     12 C7           2.1200     0.0010     3.6870 cp         1 AWE      -0.066000
     13 Cl          -0.8900     0.0030     3.8940 cl         1 AWE       0.053600
     14 C           -0.7500     0.0060    -1.3070 c3         1 AWE       0.040100
     15 N           -0.9940    -1.3770    -1.7370 nz         1 AWE       0.073400
     16 H1           1.9240    -0.0010    -0.9390 ha         1 AWE       0.110000
     17 H2           3.1590     0.0000     1.1920 ha         1 AWE       0.136000
     18 H3          -1.7810     0.0010     1.1880 ha         1 AWE       0.118000
     19 H4           4.0370     0.0020     7.0300 ha         1 AWE       0.130000
     20 H5           2.2360     1.6390     6.6460 ha         1 AWE       0.119000
     21 H6           1.0060     1.6450     4.5130 ha         1 AWE       0.117000
     22 H7           3.3540    -1.6800     3.1630 ha         1 AWE       0.120000
     23 H8          -1.6970     0.5160    -1.1770 hx         1 AWE       0.082200
     24 H9          -0.1630     0.5200    -2.0580 hx         1 AWE       0.082200
     25 H10         -1.3740    -1.9020    -0.9750 hn         1 AWE       0.223133
     26 H11         -0.1320    -1.7920    -2.0310 hn         1 AWE       0.223133
     27 HN3         -1.6430    -1.3800    -2.5000 hn         1 AWE       0.223133
     28 F            4.8130    -1.8140     5.3230 f          1 AWE      -0.117900
@<TRIPOS>BOND
     1     1     2 ar  
     2     1     6 ar  
     3     1    14 1   
     4     2     3 ar  
     5     2    16 1   
     6     3     4 ar  
     7     3    17 1   
     8     4     5 ar  
     9     4    12 1   
    10     5     6 ar  
    11     5    13 1   
    12     6    18 1   
    13     7     8 ar  
    14     7    11 ar  
    15     7    28 1   
    16     8     9 ar  
    17     8    19 1   
    18     9    10 ar  
    19     9    20 1   
    20    10    12 ar  
    21    10    21 1   
    22    11    12 ar  
    23    11    22 1   
    24    14    15 1   
    25    14    23 1   
    26    14    24 1   
    27    15    25 1   
    28    15    26 1   
    29    15    27 1   
@<TRIPOS>SUBSTRUCTURE
     1 AWE         1 TEMP              0 ****  ****    0 ROOT
