@<TRIPOS>MOLECULE
molecule
   28    29     1     0     0
SMALL
bcc


@<TRIPOS>ATOM
      1 C1           0.0000     0.0000     0.0000 ca         1 AWE      -0.198300
      2 C2           1.3830     0.0000     0.0000 ca         1 AWE      -0.099000
      3 C3           2.0760     0.0000     1.1930 ca         1 AWE      -0.099000
      4 C4           1.3800     0.0010     2.4010 cp         1 AWE       0.039000
      5 C5          -0.0140     0.0010     2.3950 ca         1 AWE       0.032400
      6 C6          -0.6970     0.0010     1.1940 ca         1 AWE      -0.096000
      7 C11          3.8240    -0.9200     5.1070 ca         1 AWE       0.141900
      8 C10          3.4980     0.0020     6.0900 ca         1 AWE      -0.138000
      9 C9           2.4870     0.9210     5.8750 ca         1 AWE      -0.096000
     10 C8           1.7980     0.9250     4.6800 ca         1 AWE      -0.109000
     11 C12          3.1420    -0.9200     3.9050 ca         1 AWE      -0.148000
     12 C7           2.1200     0.0010     3.6870 cp         1 AWE      -0.064000
     13 Cl          -0.8900     0.0030     3.8940 cl         1 AWE      -0.045400
     14 C           -0.7500     0.0060    -1.3070 c3         1 AWE       0.162100
     15 N           -0.9940    -1.3770    -1.7370 nz         1 AWE      -0.811600
     16 H1           1.9240    -0.0010    -0.9390 ha         1 AWE       0.140000
     17 H2           3.1590     0.0000     1.1920 ha         1 AWE       0.171000
     18 H3          -1.7810     0.0010     1.1880 ha         1 AWE       0.148000
     19 H4           4.0370     0.0020     7.0300 ha         1 AWE       0.161000
     20 H5           2.2360     1.6390     6.6460 ha         1 AWE       0.153000
     21 H6           1.0060     1.6450     4.5130 ha         1 AWE       0.145000
     22 H7           3.3540    -1.6800     3.1630 ha         1 AWE       0.145000
     23 H8          -1.6970     0.5160    -1.1770 hx         1 AWE       0.113700
     24 H9          -0.1630     0.5200    -2.0580 hx         1 AWE       0.113700
     25 H10         -1.3740    -1.9020    -0.9750 hn         1 AWE       0.455133
     26 H11         -0.1320    -1.7920    -2.0310 hn         1 AWE       0.455133
     27 HN3         -1.6430    -1.3800    -2.5000 hn         1 AWE       0.455133
     28 F            4.8130    -1.8140     5.3230 f          1 AWE      -0.126900
@<TRIPOS>BOND
     1    15    14 1
     2    14     1 1
     3     6     1 ar
     4     6     5 ar
     5     1     2 ar
     6    13     5 1
     7     5     4 ar
     8     2     3 ar
     9    10     9 ar
    10    10    12 ar
    11     4     3 ar
    12     4    12 1
    13     9     8 ar
    14    12    11 ar
    15     8     7 ar
    16    11     7 ar
    17     7    28 1
    18     2    16 1
    19     3    17 1
    20     6    18 1
    21     8    19 1
    22     9    20 1
    23    10    21 1
    24    11    22 1
    25    14    23 1
    26    14    24 1
    27    15    25 1
    28    15    26 1
    29    27    15 1
@<TRIPOS>SUBSTRUCTURE
     1 AWE         1 TEMP              0 ****  ****    0 ROOT
