@<TRIPOS>MOLECULE
molecule
   55    58     1     0     0
SMALL
bcc


@<TRIPOS>ATOM
      1 C13          0.0000     0.0000     0.0000 ca         1 AWF      -0.079000
      2 C14          1.3810     0.0000     0.0000 ca         1 AWF      -0.163000
      3 C6          -1.9240     1.1180     5.8830 ca         1 AWF      -0.170000
      4 C16          1.3840    -0.0000     2.4000 ca         1 AWF      -0.139000
      5 C20         -4.0900     0.5300     1.6620 cc         1 AWF       0.200900
      6 C21         -4.0910    -0.5280     0.7500 cc         1 AWF       0.200900
      7 C4          -1.7130     2.1270     8.0600 ca         1 AWF       0.412200
      8 C5          -2.5240     1.6620     7.0270 ca         1 AWF      -0.106300
      9 C10          0.0030     0.0010     2.4040 ca         1 AWF      -0.035300
     10 C12         -0.6930    -0.0000     1.2030 ca         1 AWF       0.011800
     11 C1          -0.5420     1.0650     5.8270 ca         1 AWF       0.009800
     12 C15          2.0750     0.0000     1.1990 ca         1 AWF       0.144900
     13 C23         -3.9960     1.7430     7.1350 cc         1 AWF      -0.119400
     14 C24         -4.7380     1.3580     8.1960 cd         1 AWF       0.385600
     15 C2           0.2020     1.5520     6.9050 ca         1 AWF       0.660200
     16 C26         -6.4310     2.0420     6.9240 cc         1 AWF       0.449700
     17 C30         -4.1350     0.7780     9.4490 c3         1 AWF      -0.117400
     18 C11         -1.1340    -1.4350     4.0770 c3         1 AWF      -0.118100
     19 C31         -8.6620     1.0070     6.6060 c3         1 AWF      -0.111600
     20 C32         -8.4650     3.3020     7.5750 c3         1 AWF      -0.111600
     21 C9          -0.7470    -0.0010     3.7110 c3         1 AWF       0.166400
     22 C28         -7.8700     2.3150     6.5680 c3         1 AWF       0.130500
     23 N3          -0.3990     2.0580     7.9690 nb         1 AWF      -0.686000
     24 N19         -2.8250     0.8020     1.8960 nd         1 AWF      -0.535800
     25 N22         -2.8270    -0.8010     0.5140 nd         1 AWF      -0.535800
     26 N25         -6.0320     1.5350     8.0420 nd         1 AWF      -0.686000
     27 N18         -2.0960     0.0000     1.2050 na         1 AWF       0.383800
     28 N8           1.5920     1.5010     6.8590 nv         1 AWF      -1.059500
     29 O29         -7.9380     2.8760     5.2550 oh         1 AWF      -0.611800
     30 O7           0.0840     0.5460     4.7370 os         1 AWF      -0.315900
     31 F17          3.4260    -0.0000     1.1980 f          1 AWF      -0.131900
     32 S27         -5.0960     2.3660     5.9070 ss         1 AWF      -0.126300
     33 H13         -0.5420    -0.0000    -0.9380 ha         1 AWF       0.160000
     34 H14          1.9220     0.0000    -0.9380 ha         1 AWF       0.156000
     35 H6          -2.5280     0.7490     5.0620 ha         1 AWF       0.156000
     36 H16          1.9280    -0.0000     3.3370 ha         1 AWF       0.173000
     37 H20         -4.9540     1.0250     2.0890 h4         1 AWF       0.063100
     38 H21         -4.9560    -1.0220     0.3250 h4         1 AWF       0.063100
     39 H4          -2.1670     2.5490     8.9480 h4         1 AWF       0.031100
     40 H9          -1.6430     0.6010     3.6130 h1         1 AWF       0.094700
     41 H301        -3.7050     1.5740    10.0460 hc         1 AWF       0.052700
     42 H302        -4.9040     0.2730    10.0210 hc         1 AWF       0.052700
     43 H303        -3.3600     0.0690     9.1830 hc         1 AWF       0.052700
     44 H81N         2.1230     2.3490     6.8190 hn         1 AWF       0.437300
     45 H82N         2.0630     0.6190     6.9070 hn         1 AWF       0.437300
     46 H111        -0.7780    -2.1120     3.3090 hc         1 AWF       0.052700
     47 H112        -2.2120    -1.5100     4.1540 hc         1 AWF       0.052700
     48 H113        -0.6850    -1.6990     5.0270 hc         1 AWF       0.052700
     49 H311        -8.6530     0.6080     7.6130 hc         1 AWF       0.049867
     50 H312        -9.6850     1.1950     6.3020 hc         1 AWF       0.049867
     51 H313        -8.2100     0.2910     5.9300 hc         1 AWF       0.049867
     52 H321        -9.4920     3.5180     7.3040 hc         1 AWF       0.049867
     53 H322        -7.8880     4.2180     7.5660 hc         1 AWF       0.049867
     54 H323        -8.4370     2.8660     8.5660 hc         1 AWF       0.049867
     55 H29         -8.8200     3.1580     5.0790 ho         1 AWF       0.417000
@<TRIPOS>BOND
     1     1     2 ar
     2     1    10 ar
     3     2    12 ar
     4     3     8 ar
     5     3    11 ar
     6     4     9 ar
     7     4    12 ar
     8     5     6 1
     9     5    24 2
    10     6    25 2
    11     7     8 ar
    12     7    23 ar
    13     8    13 1
    14     9    10 ar
    15     9    21 1
    16    10    27 1
    17    11    15 ar
    18    11    30 1
    19    12    31 1
    20    13    14 2
    21    13    32 1
    22    14    17 1
    23    14    26 1
    24    15    23 ar
    25    15    28 1
    26    16    22 1
    27    16    26 2
    28    16    32 1
    29    18    21 1
    30    19    22 1
    31    20    22 1
    32    21    30 1
    33    22    29 1
    34    24    27 1
    35    25    27 1
    36     1    33 1
    37     2    34 1
    38     3    35 1
    39     4    36 1
    40     5    37 1
    41     6    38 1
    42     7    39 1
    43    21    40 1
    44    17    41 1
    45    17    42 1
    46    17    43 1
    47    28    44 1
    48    28    45 1
    49    18    46 1
    50    18    47 1
    51    18    48 1
    52    19    49 1
    53    19    50 1
    54    19    51 1
    55    20    52 1
    56    20    53 1
    57    20    54 1
    58    29    55 1
@<TRIPOS>SUBSTRUCTURE
     1 AWF         1 TEMP              0 ****  ****    0 ROOT
