@<TRIPOS>MOLECULE
AWG
   29    31     1     0     0
SMALL
bcc


@<TRIPOS>ATOM
      1 N1           0.0000     0.0000     0.0000 nv         1 AWG      -0.482200
      2 N3           1.5270     0.0840     4.8540 na         1 AWG       0.218700
      3 C4           2.0990     0.0000     1.2060 ca         1 AWG      -0.052400
      4 C5           1.3990     0.0000     0.0000 ca         1 AWG       0.005600
      5 C6           2.0950    -0.0010    -1.2000 ca         1 AWG      -0.151000
      6 C7           2.0890     0.1470     3.6100 cc         1 AWG       0.317700
      7 C8           2.5430     0.2800     5.7740 ca         1 AWG      -0.274200
      8 C10          3.7930     0.5470     7.7980 ca         1 AWG      -0.104000
      9 C13          3.7190     0.4560     5.0260 ca         1 AWG       0.095400
     10 C1           3.4770    -0.0010    -1.1970 ca         1 AWG      -0.089000
     11 C2           4.1700    -0.0010    -0.0010 ca         1 AWG      -0.117000
     12 C3           3.4850     0.0060     1.2000 ca         1 AWG      -0.136000
     13 C9           2.5910     0.3280     7.1590 ca         1 AWG      -0.081000
     14 C11          4.9580     0.7210     7.0640 ca         1 AWG      -0.108000
     15 C12          4.9290     0.6770     5.6880 ca         1 AWG      -0.057000
     16 N4           3.3750     0.3690     3.7140 nd         1 AWG      -0.578100
     17 H1          -0.5000    -0.3590    -0.7890 hn         1 AWG       0.263300
     18 H2          -0.5000     0.4040     0.7670 hn         1 AWG       0.263300
     19 H4           1.5540    -0.0010    -2.1390 ha         1 AWG       0.105000
     20 H5           3.8290     0.5840     8.8800 ha         1 AWG       0.103000
     21 H6           4.0190    -0.0040    -2.1350 ha         1 AWG       0.097000
     22 H7           5.2530     0.0010    -0.0040 ha         1 AWG       0.103000
     23 H8           4.0310     0.0050     2.1350 ha         1 AWG       0.191000
     24 H10          1.6850     0.1940     7.7380 ha         1 AWG       0.097000
     25 H11          5.8970     0.8920     7.5770 ha         1 AWG       0.103000
     26 H12          5.8420     0.8130     5.1200 ha         1 AWG       0.110000
     27 N2           1.4020     0.0010     2.4220 nu         1 AWG      -0.240600
     28 H3           0.5930    -0.2070     5.0630 hn         1 AWG       0.125700
     29 H9           0.4150    -0.1650     2.4330 hn         1 AWG       0.272800
@<TRIPOS>BOND
     1     1     4 1   
     2     1    17 1   
     3     1    18 1   
     4     2     6 1   
     5     2     7 1   
     6     2    28 1   
     7     3     4 ar  
     8     3    12 ar  
     9     3    27 1   
    10     4     5 ar  
    11     5    10 ar  
    12     5    19 1   
    13     6    16 2   
    14     6    27 1   
    15     7     9 ar  
    16     7    13 ar  
    17     8    13 ar  
    18     8    14 ar  
    19     8    20 1   
    20     9    15 ar  
    21     9    16 1   
    22    10    11 ar  
    23    10    21 1   
    24    11    12 ar  
    25    11    22 1   
    26    12    23 1   
    27    13    24 1   
    28    14    15 ar  
    29    14    25 1   
    30    15    26 1   
    31    27    29 1   
@<TRIPOS>SUBSTRUCTURE
     1 AWG         1 TEMP              0 ****  ****    0 ROOT
