@<TRIPOS>MOLECULE
AWH
   43    45     1     0     0
SMALL
bcc


@<TRIPOS>ATOM
      1 O5           0.0000     0.0000     0.0000 o          1 AWH      -0.889300
      2 C19          1.2140     0.0000     0.0000 c          1 AWH       0.978200
      3 O6           1.8880     0.0000     1.1660 o          1 AWH      -0.889300
      4 C18          1.9530    -0.0080    -1.2800 ca         1 AWH      -0.105600
      5 C17          3.3500    -0.0070    -1.2820 ca         1 AWH      -0.065000
      6 C16          4.0420    -0.0150    -2.4770 ca         1 AWH      -0.131000
      7 C15          3.3600    -0.0210    -3.6770 ca         1 AWH      -0.159000
      8 C20          1.2580    -0.0200    -2.4870 ca         1 AWH      -0.052000
      9 C14          1.9630    -0.0210    -3.6900 ca         1 AWH       0.046400
     10 N2           1.2880    -0.0270    -4.8810 ne         1 AWH      -0.446100
     11 C13          1.6650     0.7720    -5.8540 cd         1 AWH       0.304800
     12 N1           1.0920     0.8770    -7.0920 n          1 AWH       0.020700
     13 C1          -0.0630     0.0520    -7.4520 c3         1 AWH       0.057300
     14 S            3.0070     1.9270    -5.8140 ss         1 AWH      -0.290800
     15 C3           2.7530     2.5070    -7.4710 cc         1 AWH      -0.151600
     16 C2           1.6010     1.7400    -7.9550 c          1 AWH       0.628700
     17 O1           1.1450     1.8870    -9.0750 o          1 AWH      -0.668500
     18 C4           3.4630     3.4510    -8.1400 cf         1 AWH       0.140800
     19 C5           4.6770     4.0180    -7.5390 ca         1 AWH      -0.164800
     20 C10          5.1830     5.2460    -7.9960 ca         1 AWH       0.205100
     21 O2           4.5510     5.9170    -8.9940 os         1 AWH      -0.254900
     22 C11          5.1250     7.1590    -9.4040 c3         1 AWH       0.082400
     23 C12          4.2940     7.7540   -10.5130 c          1 AWH       0.975600
     24 O4           4.6450     8.9290   -11.0590 o          1 AWH      -0.882800
     25 O3           3.3120     7.1720   -10.9090 o          1 AWH      -0.882800
     26 C9           6.3290     5.7710    -7.4220 ca         1 AWH      -0.238000
     27 C8           6.9710     5.0890    -6.4060 ca         1 AWH      -0.046000
     28 C7           6.4760     3.8770    -5.9520 ca         1 AWH      -0.174000
     29 C6           5.3330     3.3410    -6.5060 ca         1 AWH      -0.065000
     30 H17          3.8920    -0.0010    -0.3440 ha         1 AWH       0.126000
     31 H20          0.1810    -0.1340    -2.4910 ha         1 AWH       0.129000
     32 H16          5.1260    -0.0200    -2.4720 ha         1 AWH       0.085000
     33 H15          3.9090    -0.0550    -4.6100 ha         1 AWH       0.111000
     34 H11C        -0.9460     0.4260    -6.9490 h1         1 AWH       0.020367
     35 H12C         0.1170    -0.9730    -7.1510 h1         1 AWH       0.020367
     36 H13C        -0.2140     0.0910    -8.5240 h1         1 AWH       0.020367
     37 H4C          3.1640     3.7470    -9.1390 ha         1 AWH       0.146000
     38 HA           4.9500     2.3930    -6.1490 ha         1 AWH       0.149000
     39 H9           6.7230     6.7180    -7.7700 ha         1 AWH       0.131000
     40 H111         6.1340     6.9910    -9.7600 h1         1 AWH      -0.003300
     41 H112         5.1470     7.8420    -8.5640 h1         1 AWH      -0.003300
     42 H8           7.8680     5.5040    -5.9620 ha         1 AWH       0.085000
     43 H7           6.9850     3.3510    -5.1540 ha         1 AWH       0.100000
@<TRIPOS>BOND
     1     1     2 1   
     2     2     3 1   
     3     2     4 1   
     4     4     5 ar  
     5     4     8 ar  
     6     5     6 ar  
     7     5    30 1   
     8     6     7 ar  
     9     6    32 1   
    10     7     9 ar  
    11     7    33 1   
    12     8     9 ar  
    13     8    31 1   
    14     9    10 1   
    15    10    11 2   
    16    11    12 1   
    17    11    14 1   
    18    12    13 1   
    19    12    16 1   
    20    13    34 1   
    21    13    35 1   
    22    13    36 1   
    23    14    15 1   
    24    15    16 1   
    25    15    18 2   
    26    16    17 2   
    27    18    19 1   
    28    18    37 1   
    29    19    20 ar  
    30    19    29 ar  
    31    20    21 1   
    32    20    26 ar  
    33    21    22 1   
    34    22    23 1   
    35    22    40 1   
    36    22    41 1   
    37    23    24 1   
    38    23    25 1   
    39    26    27 ar  
    40    26    39 1   
    41    27    28 ar  
    42    27    42 1   
    43    28    29 ar  
    44    28    43 1   
    45    29    38 1   
@<TRIPOS>SUBSTRUCTURE
     1 AWH         1 TEMP              0 ****  ****    0 ROOT
