@<TRIPOS>MOLECULE
molecule
   43    45     1     0     0
SMALL
bcc


@<TRIPOS>ATOM
      1 O5           0.0000     0.0000     0.0000 o          1 AWH      -0.840300
      2 C19          1.2140     0.0000     0.0000 c          1 AWH       0.886200
      3 O6           1.8880     0.0000     1.1660 o          1 AWH      -0.840300
      4 C18          1.9530    -0.0080    -1.2800 ca         1 AWH      -0.103600
      5 C17          3.3500    -0.0070    -1.2820 ca         1 AWH      -0.096000
      6 C16          4.0420    -0.0150    -2.4770 ca         1 AWH      -0.153000
      7 C15          3.3600    -0.0210    -3.6770 ca         1 AWH      -0.181000
      8 C20          1.2580    -0.0200    -2.4870 ca         1 AWH      -0.078000
      9 C14          1.9630    -0.0210    -3.6900 ca         1 AWH       0.107400
     10 N2           1.2880    -0.0270    -4.8810 ne         1 AWH      -0.597100
     11 C13          1.6650     0.7720    -5.8540 cd         1 AWH       0.486800
     12 N1           1.0920     0.8770    -7.0920 n          1 AWH      -0.376300
     13 C1          -0.0630     0.0520    -7.4520 c3         1 AWH       0.096300
     14 S            3.0070     1.9270    -5.8140 ss         1 AWH      -0.220800
     15 C3           2.7530     2.5070    -7.4710 cc         1 AWH      -0.150600
     16 C2           1.6010     1.7400    -7.9550 c          1 AWH       0.713700
     17 O1           1.1450     1.8870    -9.0750 o          1 AWH      -0.625500
     18 C4           3.4630     3.4510    -8.1400 cf         1 AWH       0.071800
     19 C5           4.6770     4.0180    -7.5390 ca         1 AWH      -0.143800
     20 C10          5.1830     5.2460    -7.9960 ca         1 AWH       0.193100
     21 O2           4.5510     5.9170    -8.9940 os         1 AWH      -0.281900
     22 C11          5.1250     7.1590    -9.4040 c3         1 AWH       0.017400
     23 C12          4.2940     7.7540   -10.5130 c          1 AWH       0.895600
     24 O4           4.6450     8.9290   -11.0590 o          1 AWH      -0.826800
     25 O3           3.3120     7.1720   -10.9090 o          1 AWH      -0.826800
     26 C9           6.3290     5.7710    -7.4220 ca         1 AWH      -0.242000
     27 C8           6.9710     5.0890    -6.4060 ca         1 AWH      -0.079000
     28 C7           6.4760     3.8770    -5.9520 ca         1 AWH      -0.194000
     29 C6           5.3330     3.3410    -6.5060 ca         1 AWH      -0.073000
     30 H17          3.8920    -0.0010    -0.3440 ha         1 AWH       0.151000
     31 H20          0.1800    -0.1330    -2.4910 ha         1 AWH       0.158000
     32 H16          5.1260    -0.0140    -2.4720 ha         1 AWH       0.106000
     33 H15          3.9090    -0.0580    -4.6100 ha         1 AWH       0.121000
     34 H11C         0.1120    -0.9710    -7.1390 h1         1 AWH       0.051367
     35 H12C        -0.9480     0.4340    -6.9590 h1         1 AWH       0.051367
     36 H13C        -0.2060     0.0810    -8.5260 h1         1 AWH       0.051367
     37 H4C          3.1940     3.7090    -9.1570 ha         1 AWH       0.184000
     38 HA           4.9500     2.3930    -6.1490 ha         1 AWH       0.154000
     39 H9           6.7230     6.7180    -7.7700 ha         1 AWH       0.144000
     40 H111         5.1470     7.8420    -8.5640 h1         1 AWH       0.027700
     41 H112         6.1340     6.9910    -9.7600 h1         1 AWH       0.027700
     42 H8           7.8680     5.5040    -5.9620 ha         1 AWH       0.114000
     43 H7           6.9850     3.3510    -5.1540 ha         1 AWH       0.123000
@<TRIPOS>BOND
     1     1     2 1
     2     2     3 1
     3     2     4 1
     4     4     5 ar
     5     4     8 ar
     6     5     6 ar
     7     6     7 ar
     8     7     9 ar
     9     8     9 ar
    10     9    10 1
    11    10    11 2
    12    11    12 1
    13    11    14 1
    14    12    13 1
    15    12    16 1
    16    14    15 1
    17    15    16 1
    18    15    18 2
    19    16    17 2
    20    18    19 1
    21    19    20 ar
    22    19    29 ar
    23    20    21 1
    24    20    26 ar
    25    21    22 1
    26    22    23 1
    27    23    24 1
    28    23    25 1
    29    26    27 ar
    30    27    28 ar
    31    28    29 ar
    32     5    30 1
    33     8    31 1
    34     6    32 1
    35     7    33 1
    36    13    34 1
    37    13    35 1
    38    13    36 1
    39    18    37 1
    40    29    38 1
    41    26    39 1
    42    22    40 1
    43    22    41 1
    44    27    42 1
    45    28    43 1
@<TRIPOS>SUBSTRUCTURE
     1 AWH         1 TEMP              0 ****  ****    0 ROOT
