@<TRIPOS>MOLECULE
molecule
   58    61     1     0     0
SMALL
bcc


@<TRIPOS>ATOM
      1 C1           0.0000     0.0000     0.0000 ca         1 AWJ      -0.042200
      2 C2           1.3960     0.0000     0.0000 ca         1 AWJ       0.697200
      3 N3           2.0750     0.0000     1.1360 nb         1 AWJ      -0.736000
      4 C4           1.4710     0.0000     2.3070 ca         1 AWJ       0.453200
      5 C5           0.0790     0.0000     2.3910 ca         1 AWJ      -0.162300
      6 C6          -0.6740     0.0000     1.2100 ca         1 AWJ      -0.142000
      7 O7          -0.6900     0.0060    -1.1720 os         1 AWJ      -0.334900
      8 N8           2.0830    -0.0010    -1.2120 nv         1 AWJ      -1.004500
      9 C9          -2.1160     0.0110    -1.0860 c3         1 AWJ       0.185400
     10 C10         -2.6940     0.5840    -2.3540 ca         1 AWJ      -0.049300
     11 C11         -2.6210    -1.4210    -0.8970 c3         1 AWJ      -0.114100
     12 C12         -3.9540     1.1670    -2.3420 ca         1 AWJ      -0.239200
     13 C13         -4.4840     1.6950    -3.5120 ca         1 AWJ      -0.095000
     14 C14         -3.7570     1.6390    -4.6850 ca         1 AWJ      -0.165000
     15 C15         -2.5010     1.0560    -4.6950 ca         1 AWJ       0.123900
     16 C16         -1.9680     0.5350    -3.5280 ca         1 AWJ      -0.145000
     17 F17         -1.7920     1.0020    -5.8440 f          1 AWJ      -0.143900
     18 N18         -4.6890     1.2220    -1.1530 na         1 AWJ       0.218200
     19 N19         -4.2150     1.6100     0.1100 na         1 AWJ      -0.184400
     20 C20         -5.2870     1.5160     1.0080 cc         1 AWJ      -0.158800
     21 C21         -6.3620     1.1000     0.3630 cd         1 AWJ      -0.158800
     22 N22         -6.0470     0.9080    -0.9890 na         1 AWJ      -0.184400
     23 C23         -0.5920    -0.0010     3.7080 cc         1 AWJ      -0.098400
     24 C24         -0.3190    -0.8270     4.7400 cd         1 AWJ       0.376600
     25 N25         -1.0600    -0.6230     5.8070 nd         1 AWJ      -0.682000
     26 C26         -1.9390     0.3210     5.7440 cc         1 AWJ       0.432700
     27 S27         -1.8850     1.0840     4.2150 ss         1 AWJ      -0.142300
     28 C28          0.7440    -1.8940     4.6750 c3         1 AWJ      -0.116400
     29 C29         -2.8750     0.6990     6.8630 c3         1 AWJ       0.139500
     30 C30         -2.0620     1.1280     8.0860 c3         1 AWJ       0.133400
     31 O31         -3.7080     1.7820     6.4410 oh         1 AWJ      -0.606800
     32 C32         -3.7490    -0.5020     7.2260 c3         1 AWJ      -0.110100
     33 O33         -2.9450     1.3750     9.1820 oh         1 AWJ      -0.616800
     34 H4           2.0620    -0.0000     3.2150 h4         1 AWJ       0.031100
     35 H6          -1.7570     0.0000     1.2420 ha         1 AWJ       0.150000
     36 HN8          1.5780     0.0790    -2.0720 hn         1 AWJ       0.445800
     37 HN8A         3.0770    -0.1140    -1.2230 hn         1 AWJ       0.445800
     38 H9          -2.4250     0.6170    -0.2420 h1         1 AWJ       0.062700
     39 H11         -1.7860    -2.1090    -0.9500 hc         1 AWJ       0.050700
     40 H11A        -3.1020    -1.5100     0.0690 hc         1 AWJ       0.050700
     41 H11B        -3.3340    -1.6580    -1.6780 hc         1 AWJ       0.050700
     42 H13         -5.4670     2.1500    -3.5050 ha         1 AWJ       0.136000
     43 H14         -4.1710     2.0490    -5.5980 ha         1 AWJ       0.143000
     44 H16         -0.9850     0.0800    -3.5380 ha         1 AWJ       0.154000
     45 HN19        -3.2830     1.8990     0.3300 hn         1 AWJ       0.196200
     46 H20         -5.3830     2.2320     1.8150 h4         1 AWJ       0.161500
     47 H21         -7.0670     0.4410     0.8540 h4         1 AWJ       0.161500
     48 HN22        -6.6730     0.5960    -1.7050 hn         1 AWJ       0.196200
     49 H28          1.7200    -1.4380     4.7800 hc         1 AWJ       0.052033
     50 H28A         0.6850    -2.4050     3.7220 hc         1 AWJ       0.052033
     51 H28B         0.5900    -2.6070     5.4760 hc         1 AWJ       0.052033
     52 H30         -1.5110     2.0310     7.8550 h1         1 AWJ       0.043200
     53 H30A        -1.3680     0.3400     8.3520 h1         1 AWJ       0.043200
     54 HO31        -4.5860     1.6450     6.7540 ho         1 AWJ       0.422000
     55 H32         -4.1530    -0.9420     6.3220 hc         1 AWJ       0.053700
     56 H32A        -4.5630    -0.1770     7.8630 hc         1 AWJ       0.053700
     57 H32B        -3.1520    -1.2380     7.7500 hc         1 AWJ       0.053700
     58 HO33        -2.4780     1.8260     9.8660 ho         1 AWJ       0.409000
@<TRIPOS>BOND
     1     1     2 ar
     2     1     6 ar
     3     1     7 1
     4     2     3 ar
     5     2     8 1
     6     3     4 ar
     7     4     5 ar
     8     5     6 ar
     9     5    23 1
    10     7     9 1
    11     9    10 1
    12     9    11 1
    13    10    12 ar
    14    10    16 ar
    15    12    13 ar
    16    12    18 1
    17    13    14 ar
    18    14    15 ar
    19    15    16 ar
    20    15    17 1
    21    18    19 1
    22    18    22 1
    23    19    20 1
    24    20    21 2
    25    21    22 1
    26    23    24 2
    27    23    27 1
    28    24    25 1
    29    24    28 1
    30    25    26 2
    31    26    27 1
    32    26    29 1
    33    29    30 1
    34    29    31 1
    35    29    32 1
    36    30    33 1
    37     4    34 1
    38     6    35 1
    39     8    36 1
    40     8    37 1
    41     9    38 1
    42    11    39 1
    43    11    40 1
    44    11    41 1
    45    13    42 1
    46    14    43 1
    47    16    44 1
    48    19    45 1
    49    20    46 1
    50    21    47 1
    51    22    48 1
    52    28    49 1
    53    28    50 1
    54    28    51 1
    55    30    52 1
    56    30    53 1
    57    31    54 1
    58    32    55 1
    59    32    56 1
    60    32    57 1
    61    33    58 1
@<TRIPOS>SUBSTRUCTURE
     1 AWJ         1 TEMP              0 ****  ****    0 ROOT
