@<TRIPOS>MOLECULE
AWK
   55    58     1     0     0
SMALL
bcc


@<TRIPOS>ATOM
      1 C1           0.0000     0.0000     0.0000 c3         1 AWK      -0.003100
      2 N1          -0.5150    -2.3550    11.6990 na         1 AWK       0.274700
      3 C2           1.5070     0.0000     0.0000 ca         1 AWK      -0.061300
      4 N2          -0.8340    -0.2050    11.5150 nc         1 AWK      -0.521100
      5 C3           2.2050     0.0000     1.2060 cp         1 AWK      -0.044000
      6 C4           3.5980     0.0010     1.1980 ca         1 AWK      -0.082000
      7 C5           4.2790     0.0010    -0.0020 ca         1 AWK      -0.109000
      8 C6           3.5820     0.0010    -1.1960 ca         1 AWK      -0.094000
      9 C24          0.6770    -1.0930     2.8460 ca         1 AWK      -0.034600
     10 C8           1.4670    -0.0000     2.4940 cp         1 AWK      -0.018000
     11 C7           2.1980    -0.0050    -1.1950 ca         1 AWK      -0.099000
     12 C           -0.5100     1.4370     0.1260 c3         1 AWK       0.006900
     13 C23         -0.0070    -1.0880     4.0470 ca         1 AWK      -0.077000
     14 C11          0.0950    -0.0030     4.8990 ca         1 AWK      -0.089300
     15 C10          0.8820     1.0810     4.5550 ca         1 AWK      -0.095000
     16 C9           1.5620     1.0920     3.3540 ca         1 AWK      -0.084000
     17 C12         -0.6530    -0.0030     6.2070 c3         1 AWK       0.204100
     18 N            0.1910    -0.5940     7.2550 n7         1 AWK      -0.588200
     19 C13         -0.5080    -0.6100     8.5460 c3         1 AWK       0.142800
     20 C14          0.4000    -1.2310     9.6090 c3         1 AWK      -0.009700
     21 C15         -0.3160    -1.2480    10.9350 cd         1 AWK       0.199800
     22 C22         -1.3970    -0.5720    12.6950 ca         1 AWK       0.069400
     23 C16         -1.2050    -1.9570    12.8270 ca         1 AWK      -0.274200
     24 C21         -2.0750     0.1270    13.6980 ca         1 AWK      -0.046000
     25 C20         -2.5370    -0.5390    14.7990 ca         1 AWK      -0.115000
     26 C19         -2.3560    -1.9100    14.9240 ca         1 AWK      -0.093000
     27 C17         -1.6890    -2.6190    13.9470 ca         1 AWK      -0.075300
     28 C18         -1.4880    -4.1050    14.0960 c3         1 AWK       0.063200
     29 H1          -0.3610    -0.4310    -0.9260 hc         1 AWK       0.028700
     30 H2          -0.3610    -0.5860     0.8360 hc         1 AWK       0.028700
     31 H3          -0.2170    -3.2860    11.4830 hn         1 AWK       0.128700
     32 H5           4.1460     0.0010     2.1330 ha         1 AWK       0.107000
     33 H6           5.3620     0.0040    -0.0090 ha         1 AWK       0.103000
     34 H7           4.1210    -0.0010    -2.1350 ha         1 AWK       0.101000
     35 H8           1.6560    -0.0050    -2.1330 ha         1 AWK       0.107000
     36 H9           0.3180     2.0950     0.3560 hc         1 AWK       0.003367
     37 H10         -0.9660     1.7420    -0.8080 hc         1 AWK       0.003367
     38 H11         -1.2450     1.4900     0.9200 hc         1 AWK       0.003367
     39 H12         -0.6250    -1.9340     4.3210 ha         1 AWK       0.120000
     40 H13          0.9570     1.9290     5.2250 ha         1 AWK       0.106000
     41 H14          2.1780     1.9420     3.0860 ha         1 AWK       0.113000
     42 H15         -1.5610    -0.5850     6.1030 h1         1 AWK       0.012700
     43 H16         -0.9060     1.0150     6.4780 h1         1 AWK       0.012700
     44 H17          1.0360    -0.0650     7.3400 hn         1 AWK       0.256800
     45 H19         -0.7600     0.4030     8.8330 h1         1 AWK       0.019700
     46 H20         -1.4150    -1.1970     8.4580 h1         1 AWK       0.019700
     47 H21          0.6520    -2.2450     9.3220 hc         1 AWK       0.024200
     48 H22          1.3070    -0.6450     9.6960 hc         1 AWK       0.024200
     49 H23         -2.2210     1.1960    13.6100 ha         1 AWK       0.109000
     50 H24         -3.0620     0.0060    15.5730 ha         1 AWK       0.104000
     51 H25         -2.7280    -2.4230    15.8030 ha         1 AWK       0.106000
     52 H26         -1.9250    -4.4370    15.0300 hc         1 AWK       0.005700
     53 H27         -0.4280    -4.3270    14.0930 hc         1 AWK       0.005700
     54 H28         -1.9670    -4.6180    13.2710 hc         1 AWK       0.005700
     55 Cl           0.5480    -2.4550     1.7780 cl         1 AWK      -0.010400
@<TRIPOS>BOND
     1     1     3 1   
     2     1    12 1   
     3     1    29 1   
     4     1    30 1   
     5     2    21 1   
     6     2    23 1   
     7     2    31 1   
     8     3     5 ar  
     9     3    11 ar  
    10     4    21 2   
    11     4    22 1   
    12     5     6 ar  
    13     5    10 1   
    14     6     7 ar  
    15     6    32 1   
    16     7     8 ar  
    17     7    33 1   
    18     8    11 ar  
    19     8    34 1   
    20     9    10 ar  
    21     9    13 ar  
    22     9    55 1   
    23    10    16 ar  
    24    11    35 1   
    25    12    36 1   
    26    12    37 1   
    27    12    38 1   
    28    13    14 ar  
    29    13    39 1   
    30    14    15 ar  
    31    14    17 1   
    32    15    16 ar  
    33    15    40 1   
    34    16    41 1   
    35    17    18 1   
    36    17    42 1   
    37    17    43 1   
    38    18    19 1   
    39    18    44 1   
    40    19    20 1   
    41    19    45 1   
    42    19    46 1   
    43    20    21 1   
    44    20    47 1   
    45    20    48 1   
    46    22    23 ar  
    47    22    24 ar  
    48    23    27 ar  
    49    24    25 ar  
    50    24    49 1   
    51    25    26 ar  
    52    25    50 1   
    53    26    27 ar  
    54    26    51 1   
    55    27    28 1   
    56    28    52 1   
    57    28    53 1   
    58    28    54 1   
@<TRIPOS>SUBSTRUCTURE
     1 AWK         1 TEMP              0 ****  ****    0 ROOT
