@<TRIPOS>MOLECULE
molecule
   55    58     1     0     0
SMALL
bcc


@<TRIPOS>ATOM
      1 C1           0.0000     0.0000     0.0000 c3         1 AWK      -0.051100
      2 N1          -0.5150    -2.3550    11.6990 na         1 AWK      -0.260300
      3 C2           1.5070     0.0000     0.0000 ca         1 AWK      -0.051300
      4 N2          -0.8340    -0.2050    11.5150 nc         1 AWK      -0.607100
      5 C3           2.2050     0.0000     1.2060 cp         1 AWK      -0.049000
      6 C4           3.5980     0.0010     1.1980 ca         1 AWK      -0.106000
      7 C5           4.2790     0.0010    -0.0020 ca         1 AWK      -0.137000
      8 C6           3.5820     0.0010    -1.1960 ca         1 AWK      -0.120000
      9 C24          0.6770    -1.0930     2.8460 ca         1 AWK       0.031400
     10 C8           1.4670    -0.0000     2.4940 cp         1 AWK      -0.022000
     11 C7           2.1980    -0.0050    -1.1950 ca         1 AWK      -0.128000
     12 C           -0.5100     1.4370     0.1260 c3         1 AWK      -0.087100
     13 C23         -0.0070    -1.0880     4.0470 ca         1 AWK      -0.100000
     14 C11          0.0950    -0.0030     4.8990 ca         1 AWK      -0.080300
     15 C10          0.8820     1.0810     4.5550 ca         1 AWK      -0.125000
     16 C9           1.5620     1.0920     3.3540 ca         1 AWK      -0.110000
     17 C12         -0.6530    -0.0030     6.2070 c3         1 AWK       0.206100
     18 N            0.1910    -0.5940     7.2550 n7         1 AWK      -0.821200
     19 C13         -0.5080    -0.6100     8.5460 c3         1 AWK       0.159800
     20 C14          0.4000    -1.2310     9.6090 c3         1 AWK      -0.080700
     21 C15         -0.3160    -1.2480    10.9350 cd         1 AWK       0.418800
     22 C22         -1.3970    -0.5720    12.6950 ca         1 AWK       0.096400
     23 C16         -1.2050    -1.9570    12.8270 ca         1 AWK      -0.092200
     24 C21         -2.0750     0.1270    13.6980 ca         1 AWK      -0.075000
     25 C20         -2.5370    -0.5390    14.7990 ca         1 AWK      -0.142000
     26 C19         -2.3560    -1.9100    14.9240 ca         1 AWK      -0.115000
     27 C17         -1.6890    -2.6190    13.9470 ca         1 AWK      -0.081300
     28 C18         -1.4880    -4.1050    14.0960 c3         1 AWK      -0.048800
     29 H1          -0.3610    -0.4310    -0.9260 hc         1 AWK       0.055700
     30 H2          -0.3610    -0.5860     0.8360 hc         1 AWK       0.055700
     31 H3          -0.2170    -3.2860    11.4830 hn         1 AWK       0.303700
     32 H5           4.1460     0.0010     2.1330 ha         1 AWK       0.134000
     33 H6           5.3620     0.0040    -0.0090 ha         1 AWK       0.130000
     34 H7           4.1210    -0.0010    -2.1350 ha         1 AWK       0.129000
     35 H8           1.6560    -0.0050    -2.1330 ha         1 AWK       0.132000
     36 H9           0.3180     2.0950     0.3560 hc         1 AWK       0.035700
     37 H10         -0.9660     1.7420    -0.8080 hc         1 AWK       0.035700
     38 H11         -1.2450     1.4900     0.9200 hc         1 AWK       0.035700
     39 H12         -0.6250    -1.9340     4.3210 ha         1 AWK       0.149000
     40 H13          0.9570     1.9290     5.2250 ha         1 AWK       0.133000
     41 H14          2.1780     1.9420     3.0860 ha         1 AWK       0.143000
     42 H15         -1.5610    -0.5850     6.1030 h1         1 AWK       0.042700
     43 H16         -0.9060     1.0150     6.4780 h1         1 AWK       0.042700
     44 H17          1.0360    -0.0650     7.3400 hn         1 AWK       0.356800
     45 H19         -0.7600     0.4030     8.8330 h1         1 AWK       0.049200
     46 H20         -1.4150    -1.1970     8.4580 h1         1 AWK       0.049200
     47 H21          0.6520    -2.2450     9.3220 hc         1 AWK       0.064700
     48 H22          1.3070    -0.6450     9.6960 hc         1 AWK       0.064700
     49 H23         -2.2210     1.1960    13.6100 ha         1 AWK       0.141000
     50 H24         -3.0620     0.0060    15.5730 ha         1 AWK       0.133000
     51 H25         -2.7280    -2.4230    15.8030 ha         1 AWK       0.133000
     52 H26         -1.9250    -4.4370    15.0300 hc         1 AWK       0.041700
     53 H27         -0.4280    -4.3270    14.0930 hc         1 AWK       0.041700
     54 H28         -1.9670    -4.6180    13.2710 hc         1 AWK       0.041700
     55 Cl           0.5480    -2.4550     1.7780 cl         1 AWK      -0.097400
@<TRIPOS>BOND
     1     7     8 ar
     2     7     6 ar
     3     8    11 ar
     4     6     5 ar
     5    11     3 ar
     6    16    15 ar
     7    16    10 ar
     8     5     3 ar
     9     5    10 1
    10     3     1 1
    11    15    14 ar
    12    10     9 ar
    13    12     1 1
    14    14    17 1
    15    14    13 ar
    16     9    13 ar
    17     9    55 1
    18    17    18 1
    19    18    19 1
    20    19    20 1
    21    20    21 1
    22    21     4 2
    23    21     2 1
    24     4    22 1
    25     2    23 1
    26    22    23 ar
    27    22    24 ar
    28    23    27 ar
    29    24    25 ar
    30    27    28 1
    31    27    26 ar
    32    25    26 ar
    33     1    29 1
    34     1    30 1
    35     2    31 1
    36     6    32 1
    37     7    33 1
    38     8    34 1
    39    11    35 1
    40    12    36 1
    41    12    37 1
    42    12    38 1
    43    13    39 1
    44    15    40 1
    45    16    41 1
    46    17    42 1
    47    17    43 1
    48    18    44 1
    49    19    45 1
    50    19    46 1
    51    20    47 1
    52    20    48 1
    53    24    49 1
    54    25    50 1
    55    26    51 1
    56    28    52 1
    57    28    53 1
    58    28    54 1
@<TRIPOS>SUBSTRUCTURE
     1 AWK         1 TEMP              0 ****  ****    0 ROOT
