@<TRIPOS>MOLECULE
molecule
   31    33     1     0     0
SMALL
bcc


@<TRIPOS>ATOM
      1 N1           0.0000     0.0000     0.0000 n3         1 AWM      -0.736600
      2 N3           3.2000    -1.2700     3.7380 nc         1 AWM      -0.616100
      3 C4           1.9770     0.0000     1.4440 c3         1 AWM       0.162800
      4 C5           1.4700     0.0000     0.0000 c3         1 AWM       0.161800
      5 C6           1.9490    -1.2530     3.4300 cd         1 AWM       0.600100
      6 C7           3.5280    -1.3430     5.0440 ca         1 AWM       0.146400
      7 C8           4.8100    -1.3760     5.6310 ca         1 AWM      -0.084000
      8 C10          3.8310    -1.5010     7.8150 ca         1 AWM      -0.128000
      9 C1          -0.5270     0.0760    -1.3690 c3         1 AWM       0.153100
     10 C2          -0.5240    -1.1810     0.7010 c3         1 AWM       0.161800
     11 C3          -0.0160    -1.1820     2.1450 c3         1 AWM       0.162800
     12 N2           1.4540    -1.1810     2.1440 nh         1 AWM      -0.625600
     13 C9           4.9480    -1.4540     6.9940 ca         1 AWM      -0.123000
     14 C11          2.5700    -1.4690     7.2630 ca         1 AWM      -0.083000
     15 C12          2.4100    -1.3910     5.8820 ca         1 AWM      -0.052100
     16 S1           0.9610    -1.3350     4.8830 ss         1 AWM      -0.187100
     17 H2           3.0600    -0.0310     1.4460 h1         1 AWM       0.060950
     18 H3           1.6350     0.8970     1.9460 h1         1 AWM       0.060950
     19 H4           1.8300     0.8860    -0.5080 h1         1 AWM       0.047200
     20 H5           1.8300    -0.8860    -0.5080 h1         1 AWM       0.047200
     21 H6           5.6910    -1.3400     5.0020 ha         1 AWM       0.145000
     22 H7           3.9510    -1.5630     8.8900 ha         1 AWM       0.135000
     23 H8          -0.2080    -0.7950    -1.9280 h1         1 AWM       0.034367
     24 H9          -0.1530     0.9710    -1.8510 h1         1 AWM       0.034367
     25 H10         -1.6100     0.1080    -1.3380 h1         1 AWM       0.034367
     26 H11         -1.6060    -1.1500     0.7000 h1         1 AWM       0.047200
     27 H12         -0.1830    -2.0790     0.1990 h1         1 AWM       0.047200
     28 H13         -0.3760    -0.2970     2.6540 h1         1 AWM       0.060950
     29 H14         -0.3750    -2.0690     2.6520 h1         1 AWM       0.060950
     30 H15          5.9380    -1.4790     7.4320 ha         1 AWM       0.135000
     31 H16          1.6980    -1.5070     7.9060 ha         1 AWM       0.135000
@<TRIPOS>BOND
     1    11    10 1
     2    11    12 1
     3    10     1 1
     4     1     9 1
     5     1     4 1
     6    16     5 1
     7    16    15 1
     8    12     5 1
     9    12     3 1
    10     5     2 2
    11     3     4 1
    12    15    14 ar
    13    15     6 ar
    14    14     8 ar
    15     2     6 1
    16     6     7 ar
    17     8    13 ar
    18     7    13 ar
    19     3    17 1
    20     3    18 1
    21     4    19 1
    22     4    20 1
    23     7    21 1
    24     8    22 1
    25     9    23 1
    26     9    24 1
    27     9    25 1
    28    10    26 1
    29    10    27 1
    30    11    28 1
    31    11    29 1
    32    13    30 1
    33    14    31 1
@<TRIPOS>SUBSTRUCTURE
     1 AWM         1 TEMP              0 ****  ****    0 ROOT
