@<TRIPOS>MOLECULE
AWM
   31    33     1     0     0
SMALL
bcc


@<TRIPOS>ATOM
      1 N1           0.0000     0.0000     0.0000 n3         1 AWM      -0.551600
      2 N3           3.2000    -1.2700     3.7380 nc         1 AWM      -0.489100
      3 C4           1.9770     0.0000     1.4440 c3         1 AWM       0.127800
      4 C5           1.4700     0.0000     0.0000 c3         1 AWM       0.154300
      5 C6           1.9490    -1.2530     3.4300 cd         1 AWM       0.479100
      6 C7           3.5280    -1.3430     5.0440 ca         1 AWM       0.096400
      7 C8           4.8100    -1.3760     5.6310 ca         1 AWM      -0.055000
      8 C10          3.8310    -1.5010     7.8150 ca         1 AWM      -0.101000
      9 C1          -0.5270     0.0760    -1.3690 c3         1 AWM       0.190100
     10 C2          -0.5240    -1.1810     0.7010 c3         1 AWM       0.154300
     11 C3          -0.0160    -1.1820     2.1450 c3         1 AWM       0.127800
     12 N2           1.4540    -1.1810     2.1440 nh         1 AWM      -0.374600
     13 C9           4.9480    -1.4540     6.9940 ca         1 AWM      -0.094000
     14 C11          2.5700    -1.4690     7.2630 ca         1 AWM      -0.042000
     15 C12          2.4100    -1.3910     5.8820 ca         1 AWM      -0.026100
     16 S1           0.9610    -1.3350     4.8830 ss         1 AWM      -0.248100
     17 H2           3.0600    -0.0310     1.4460 h1         1 AWM       0.034450
     18 H3           1.6350     0.8970     1.9460 h1         1 AWM       0.034450
     19 H4           1.8300     0.8860    -0.5080 h1         1 AWM       0.017950
     20 H5           1.8300    -0.8860    -0.5080 h1         1 AWM       0.017950
     21 H6           5.6910    -1.3400     5.0020 ha         1 AWM       0.114000
     22 H7           3.9510    -1.5630     8.8900 ha         1 AWM       0.107000
     23 H8          -0.2080    -0.7950    -1.9280 h1         1 AWM       0.001700
     24 H9          -0.1530     0.9710    -1.8510 h1         1 AWM       0.001700
     25 H10         -1.6100     0.1080    -1.3380 h1         1 AWM       0.001700
     26 H11         -1.6060    -1.1500     0.7000 h1         1 AWM       0.017950
     27 H12         -0.1830    -2.0790     0.1990 h1         1 AWM       0.017950
     28 H13         -0.3760    -0.2970     2.6540 h1         1 AWM       0.034450
     29 H14         -0.3750    -2.0690     2.6520 h1         1 AWM       0.034450
     30 H15          5.9380    -1.4790     7.4320 ha         1 AWM       0.106000
     31 H16          1.6980    -1.5070     7.9060 ha         1 AWM       0.110000
@<TRIPOS>BOND
     1     1     4 1   
     2     1     9 1   
     3     1    10 1   
     4     2     5 2   
     5     2     6 1   
     6     3     4 1   
     7     3    12 1   
     8     3    17 1   
     9     3    18 1   
    10     4    19 1   
    11     4    20 1   
    12     5    12 1   
    13     5    16 1   
    14     6     7 ar  
    15     6    15 ar  
    16     7    13 ar  
    17     7    21 1   
    18     8    13 ar  
    19     8    14 ar  
    20     8    22 1   
    21     9    23 1   
    22     9    24 1   
    23     9    25 1   
    24    10    11 1   
    25    10    26 1   
    26    10    27 1   
    27    11    12 1   
    28    11    28 1   
    29    11    29 1   
    30    13    30 1   
    31    14    15 ar  
    32    14    31 1   
    33    15    16 1   
@<TRIPOS>SUBSTRUCTURE
     1 AWM         1 TEMP              0 ****  ****    0 ROOT
