@<TRIPOS>MOLECULE
molecule
   46    49     1     0     0
SMALL
bcc


@<TRIPOS>ATOM
      1 C8           0.0000     0.0000     0.0000 ca         1 AWN      -0.128000
      2 C5           4.8910    -0.0010     1.0920 c3         1 AWN      -0.080700
      3 C4           5.7320    -1.1830     0.6050 c3         1 AWN       0.160800
      4 C2           9.1780    -2.2730     1.5900 ca         1 AWN      -0.079300
      5 N1           2.3500     0.0000     0.9920 na         1 AWN      -0.261300
      6 C6           3.5640    -0.0010     0.3790 cc         1 AWN       0.418800
      7 C           11.4560    -1.5430     1.7250 ca         1 AWN       0.035400
      8 C15         11.5960    -2.2140     2.9380 cp         1 AWN      -0.026000
      9 C16         12.8920    -2.1820     3.6610 cp         1 AWN      -0.049000
     10 C21         14.0750    -2.4800     2.9870 ca         1 AWN      -0.106500
     11 C20         15.2770    -2.4490     3.6650 ca         1 AWN      -0.131500
     12 C19         15.3090    -2.1240     5.0090 ca         1 AWN      -0.122000
     13 C18         14.1370    -1.8280     5.6820 ca         1 AWN      -0.131500
     14 C17         12.9300    -1.8500     5.0140 ca         1 AWN      -0.106500
     15 C14         10.5180    -2.9190     3.4680 ca         1 AWN      -0.111000
     16 C13          9.3140    -2.9450     2.7910 ca         1 AWN      -0.105000
     17 C1          10.2460    -1.5750     1.0570 ca         1 AWN      -0.118000
     18 C3           7.8620    -2.3060     0.8570 c3         1 AWN       0.207100
     19 N            7.0260    -1.1830     1.3000 n7         1 AWN      -0.822200
     20 N2           3.4120    -0.0010    -0.9140 nd         1 AWN      -0.606100
     21 C12          2.0880    -0.0010    -1.2180 ca         1 AWN       0.093400
     22 C7           1.3890     0.0000     0.0000 ca         1 AWN      -0.095200
     23 C11          1.3760    -0.0010    -2.4200 ca         1 AWN      -0.070000
     24 C10          0.0100     0.0050    -2.4010 ca         1 AWN      -0.146000
     25 C9          -0.6820     0.0000    -1.1980 ca         1 AWN      -0.114000
     26 H1          -0.5450    -0.0040     0.9360 ha         1 AWN       0.126000
     27 H2           5.4130     0.9250     0.8820 hc         1 AWN       0.064700
     28 H3           4.7270    -0.0890     2.1590 hc         1 AWN       0.064700
     29 H4           5.8960    -1.0940    -0.4620 h1         1 AWN       0.049200
     30 H5           5.2100    -2.1080     0.8150 h1         1 AWN       0.049200
     31 H6           2.1850     0.1290     1.9700 hn         1 AWN       0.302700
     32 H7          14.0520    -2.7350     1.9350 ha         1 AWN       0.137000
     33 H8          16.1980    -2.6800     3.1430 ha         1 AWN       0.130500
     34 H9          16.2550    -2.1030     5.5370 ha         1 AWN       0.129000
     35 H10         14.1680    -1.5720     6.7340 ha         1 AWN       0.130500
     36 H11         12.0130    -1.6180     5.5420 ha         1 AWN       0.137000
     37 H12         10.6220    -3.4440     4.4100 ha         1 AWN       0.143000
     38 H13          8.4750    -3.4920     3.2040 ha         1 AWN       0.140000
     39 H14         10.1340    -1.0510     0.1160 ha         1 AWN       0.143000
     40 H15          7.3540    -3.2390     1.0690 h1         1 AWN       0.042700
     41 H16          8.0400    -2.2250    -0.2080 h1         1 AWN       0.042700
     42 H17          7.5020    -0.3210     1.1190 hn         1 AWN       0.357800
     43 H20          1.9060     0.0030    -3.3650 ha         1 AWN       0.142000
     44 H21         -0.5390     0.0050    -3.3350 ha         1 AWN       0.133000
     45 H22         -1.7650     0.0050    -1.2010 ha         1 AWN       0.132000
     46 Cl          12.7960    -0.6670     1.0540 cl         1 AWN      -0.102400
@<TRIPOS>BOND
     1    46     7 1
     2    11    10 ar
     3    11    12 ar
     4    10     9 ar
     5    12    13 ar
     6     7    17 ar
     7     7     8 ar
     8     9     8 1
     9     9    14 ar
    10    17     4 ar
    11    13    14 ar
    12     8    15 ar
    13     4    18 1
    14     4    16 ar
    15    15    16 ar
    16    19    18 1
    17    19     3 1
    18     3     2 1
    19     2     6 1
    20     6     5 1
    21     6    20 2
    22     5    22 1
    23    20    21 1
    24    22    21 ar
    25    22     1 ar
    26    21    23 ar
    27     1    25 ar
    28    23    24 ar
    29    25    24 ar
    30     1    26 1
    31     2    27 1
    32     2    28 1
    33     3    29 1
    34     3    30 1
    35     5    31 1
    36    10    32 1
    37    11    33 1
    38    12    34 1
    39    13    35 1
    40    14    36 1
    41    15    37 1
    42    16    38 1
    43    17    39 1
    44    18    40 1
    45    18    41 1
    46    19    42 1
    47    23    43 1
    48    24    44 1
    49    25    45 1
@<TRIPOS>SUBSTRUCTURE
     1 AWN         1 TEMP              0 ****  ****    0 ROOT
