@<TRIPOS>MOLECULE
AWN
   46    49     1     0     0
SMALL
bcc


@<TRIPOS>ATOM
      1 C8           0.0000     0.0000     0.0000 ca         1 AWN      -0.086000
      2 C5           4.8910    -0.0010     1.0920 c3         1 AWN      -0.010700
      3 C4           5.7320    -1.1830     0.6050 c3         1 AWN       0.142800
      4 C2           9.1780    -2.2730     1.5900 ca         1 AWN      -0.088300
      5 N1           2.3500     0.0000     0.9920 na         1 AWN       0.270700
      6 C6           3.5640    -0.0010     0.3790 cc         1 AWN       0.201800
      7 C           11.4560    -1.5430     1.7250 ca         1 AWN      -0.028600
      8 C15         11.5960    -2.2140     2.9380 cp         1 AWN      -0.024000
      9 C16         12.8920    -2.1820     3.6610 cp         1 AWN      -0.042000
     10 C21         14.0750    -2.4800     2.9870 ca         1 AWN      -0.089000
     11 C20         15.2770    -2.4490     3.6650 ca         1 AWN      -0.100500
     12 C19         15.3090    -2.1240     5.0090 ca         1 AWN      -0.097000
     13 C18         14.1370    -1.8280     5.6820 ca         1 AWN      -0.100500
     14 C17         12.9300    -1.8500     5.0140 ca         1 AWN      -0.089000
     15 C14         10.5180    -2.9190     3.4680 ca         1 AWN      -0.086000
     16 C13          9.3140    -2.9450     2.7910 ca         1 AWN      -0.077000
     17 C1          10.2460    -1.5750     1.0570 ca         1 AWN      -0.095000
     18 C3           7.8620    -2.3060     0.8570 c3         1 AWN       0.204100
     19 N            7.0260    -1.1830     1.3000 n7         1 AWN      -0.589200
     20 N2           3.4120    -0.0010    -0.9140 nd         1 AWN      -0.521100
     21 C12          2.0880    -0.0010    -1.2180 ca         1 AWN       0.066400
     22 C7           1.3890     0.0000     0.0000 ca         1 AWN      -0.278200
     23 C11          1.3760    -0.0010    -2.4200 ca         1 AWN      -0.039000
     24 C10          0.0100     0.0050    -2.4010 ca         1 AWN      -0.119000
     25 C9          -0.6820     0.0000    -1.1980 ca         1 AWN      -0.091000
     26 H1          -0.5450    -0.0040     0.9360 ha         1 AWN       0.099000
     27 H2           5.4130     0.9250     0.8820 hc         1 AWN       0.024700
     28 H3           4.7270    -0.0890     2.1590 hc         1 AWN       0.024700
     29 H4           5.8960    -1.0940    -0.4620 h1         1 AWN       0.020200
     30 H5           5.2100    -2.1080     0.8150 h1         1 AWN       0.020200
     31 H6           2.1850     0.1290     1.9700 hn         1 AWN       0.126700
     32 H7          14.0520    -2.7350     1.9350 ha         1 AWN       0.111500
     33 H8          16.1980    -2.6800     3.1430 ha         1 AWN       0.103000
     34 H9          16.2550    -2.1030     5.5370 ha         1 AWN       0.102000
     35 H10         14.1680    -1.5720     6.7340 ha         1 AWN       0.103000
     36 H11         12.0130    -1.6180     5.5420 ha         1 AWN       0.111500
     37 H12         10.6220    -3.4440     4.4100 ha         1 AWN       0.113000
     38 H13          8.4750    -3.4920     3.2040 ha         1 AWN       0.111000
     39 H14         10.1340    -1.0510     0.1160 ha         1 AWN       0.116000
     40 H15          7.3540    -3.2390     1.0690 h1         1 AWN       0.012700
     41 H16          8.0400    -2.2250    -0.2080 h1         1 AWN       0.012700
     42 H17          7.5020    -0.3210     1.1190 hn         1 AWN       0.256800
     43 H20          1.9060     0.0030    -3.3650 ha         1 AWN       0.109000
     44 H21         -0.5390     0.0050    -3.3350 ha         1 AWN       0.104000
     45 H22         -1.7650     0.0050    -1.2010 ha         1 AWN       0.103000
     46 Cl          12.7960    -0.6670     1.0540 cl         1 AWN      -0.018400
@<TRIPOS>BOND
     1     1    22 ar  
     2     1    25 ar  
     3     1    26 1   
     4     2     3 1   
     5     2     6 1   
     6     2    27 1   
     7     2    28 1   
     8     3    19 1   
     9     3    29 1   
    10     3    30 1   
    11     4    16 ar  
    12     4    17 ar  
    13     4    18 1   
    14     5     6 1   
    15     5    22 1   
    16     5    31 1   
    17     6    20 2   
    18     7     8 ar  
    19     7    17 ar  
    20     7    46 1   
    21     8     9 1   
    22     8    15 ar  
    23     9    10 ar  
    24     9    14 ar  
    25    10    11 ar  
    26    10    32 1   
    27    11    12 ar  
    28    11    33 1   
    29    12    13 ar  
    30    12    34 1   
    31    13    14 ar  
    32    13    35 1   
    33    14    36 1   
    34    15    16 ar  
    35    15    37 1   
    36    16    38 1   
    37    17    39 1   
    38    18    19 1   
    39    18    40 1   
    40    18    41 1   
    41    19    42 1   
    42    20    21 1   
    43    21    22 ar  
    44    21    23 ar  
    45    23    24 ar  
    46    23    43 1   
    47    24    25 ar  
    48    24    44 1   
    49    25    45 1   
@<TRIPOS>SUBSTRUCTURE
     1 AWN         1 TEMP              0 ****  ****    0 ROOT
