@<TRIPOS>MOLECULE
AWP
   39    40     1     0     0
SMALL
bcc


@<TRIPOS>ATOM
      1 N1           0.0000     0.0000     0.0000 nb         1 AWP      -0.584000
      2 N3           4.0110    -2.6090     7.1940 ns         1 AWP      -0.214900
      3 C4          -0.0560     0.0010     2.3470 ca         1 AWP      -0.217300
      4 C5           1.3310     0.0010     2.3880 ca         1 AWP      -0.056300
      5 C6           2.0640     0.0010     3.7030 c3         1 AWP       0.015900
      6 C7           2.3130    -1.4410     4.1490 c3         1 AWP       0.069000
      7 C8           3.3550    -2.6090     6.0170 c          1 AWP       0.581100
      8 C10          4.5100    -3.6660     9.3430 c3         1 AWP      -0.041400
      9 C13          6.0660    -5.7070     7.9300 c3         1 AWP      -0.017400
     10 C1           2.0250     0.0000     1.1880 ca         1 AWP      -0.217300
     11 C2           1.3180     0.0000     0.0000 ca         1 AWP       0.408200
     12 C3          -0.6940     0.0000     1.1220 ca         1 AWP       0.408200
     13 N2           3.0260    -1.4420     5.4280 ns         1 AWP      -0.228900
     14 O1           3.0580    -3.6620     5.4860 o          1 AWP      -0.704100
     15 C9           4.3670    -3.8780     7.8340 c3         1 AWP       0.033700
     16 C11          4.8830    -4.9910    10.0110 c3         1 AWP      -0.017400
     17 C12          6.2090    -5.4960     9.4380 c3         1 AWP      -0.028400
     18 C14          5.6940    -4.3820     7.2610 c3         1 AWP      -0.041400
     19 H1           4.2350    -1.7420     7.6410 hn         1 AWP       0.164500
     20 H2          -0.6310     0.0010     3.2650 ha         1 AWP       0.116000
     21 H3           3.0130     0.5110     3.5880 hc         1 AWP       0.020700
     22 H4           1.4680     0.5120     4.4490 hc         1 AWP       0.020700
     23 H5           2.9090    -1.9520     3.4030 h1         1 AWP       0.029200
     24 H6           1.3640    -1.9520     4.2650 h1         1 AWP       0.029200
     25 H8           5.2880    -2.9360     9.5320 hc         1 AWP       0.019200
     26 H9           5.2880    -6.4360     7.7410 hc         1 AWP       0.016200
     27 H10          7.0060    -6.0620     7.5260 hc         1 AWP       0.016200
     28 H11          3.1080    -0.0000     1.1810 ha         1 AWP       0.116000
     29 H12          1.8530    -0.0000    -0.9420 h4         1 AWP      -0.019900
     30 H13         -1.7760     0.0000     1.0820 h4         1 AWP      -0.019900
     31 H14          3.2680    -0.5760     5.8670 hn         1 AWP       0.165500
     32 H15          3.5930    -4.6120     7.6460 h1         1 AWP       0.061700
     33 H16          4.9860    -4.8390    11.0780 hc         1 AWP       0.016200
     34 H17          4.1070    -5.7220     9.8180 hc         1 AWP       0.016200
     35 H18          6.4710    -6.4350     9.9100 hc         1 AWP       0.013200
     36 H19          6.9850    -4.7630     9.6270 hc         1 AWP       0.013200
     37 H20          6.4700    -3.6510     7.4540 hc         1 AWP       0.019200
     38 H21          5.5900    -4.5350     6.1940 hc         1 AWP       0.019200
     39 H7           3.5690    -3.3120     9.7470 hc         1 AWP       0.019200
@<TRIPOS>BOND
     1     1    11 ar  
     2     1    12 ar  
     3     2     7 1   
     4     2    15 1   
     5     2    19 1   
     6     3     4 ar  
     7     3    12 ar  
     8     3    20 1   
     9     4     5 1   
    10     4    10 ar  
    11     5     6 1   
    12     5    21 1   
    13     5    22 1   
    14     6    13 1   
    15     6    23 1   
    16     6    24 1   
    17     7    13 1   
    18     7    14 2   
    19     8    15 1   
    20     8    16 1   
    21     8    25 1   
    22     8    39 1   
    23     9    17 1   
    24     9    18 1   
    25     9    26 1   
    26     9    27 1   
    27    10    11 ar  
    28    10    28 1   
    29    11    29 1   
    30    12    30 1   
    31    13    31 1   
    32    15    18 1   
    33    15    32 1   
    34    16    17 1   
    35    16    33 1   
    36    16    34 1   
    37    17    35 1   
    38    17    36 1   
    39    18    37 1   
    40    18    38 1   
@<TRIPOS>SUBSTRUCTURE
     1 AWP         1 TEMP              0 ****  ****    0 ROOT
