@<TRIPOS>MOLECULE
molecule
   29    29     1     0     0
SMALL
bcc


@<TRIPOS>ATOM
      1 C4           0.0000     0.0000     0.0000 cc         1 AWQ      -0.157600
      2 C3           1.8000     0.0000     1.2920 cc         1 AWQ      -0.166600
      3 C5          -0.8840     0.0010    -1.2210 c3         1 AWQ       0.000200
      4 C2           0.7230     0.0100     2.1020 cd         1 AWQ      -0.101300
      5 C6          -1.8550     0.0090     1.7480 c3         1 AWQ      -0.118100
      6 O1          -1.5870    -2.3310     1.6720 o          1 AWQ      -0.863300
      7 N1           1.3630     0.0000     0.0000 na         1 AWQ      -0.185100
      8 O2          -3.5870    -1.6540     2.3210 o          1 AWQ      -0.863300
      9 O3           0.7760     2.6490     6.2750 o          1 AWQ      -0.872800
     10 O4           0.7700     0.4400     6.2270 o          1 AWQ      -0.872800
     11 C1          -0.4220     0.0070     1.2810 cd         1 AWQ      -0.066300
     12 C10          0.7480     1.4690     4.1070 c3         1 AWQ      -0.174400
     13 C11          0.7650     1.4820     5.6130 c          1 AWQ       0.891600
     14 C7           0.7390     0.0230     3.6080 c3         1 AWQ       0.005900
     15 C8           3.2410     0.0010     1.7370 c3         1 AWQ      -0.000800
     16 C9          -2.3330    -1.4110     1.9110 c          1 AWQ       0.898600
     17 H1          -1.5060     0.8880    -1.2160 hc         1 AWQ       0.026033
     18 H2          -0.2680    -0.0030    -2.1120 hc         1 AWQ       0.026033
     19 H3          -1.5120    -0.8810    -1.2120 hc         1 AWQ       0.026033
     20 H4          -2.4730     0.5160     1.0160 hc         1 AWQ       0.037700
     21 H5          -1.9250     0.5240     2.6980 hc         1 AWQ       0.037700
     22 H6           1.9470    -0.0060    -0.8130 hn         1 AWQ       0.253700
     23 H9          -0.1390     1.9790     3.7520 hc         1 AWQ       0.025200
     24 H10          1.6300     1.9750     3.7320 hc         1 AWQ       0.025200
     25 H11         -0.1420    -0.4830     3.9830 hc         1 AWQ       0.055700
     26 H12          1.6270    -0.4870     3.9640 hc         1 AWQ       0.055700
     27 H13          3.8850    -0.1130     0.8730 hc         1 AWQ       0.025700
     28 H14          3.4640     0.9370     2.2340 hc         1 AWQ       0.025700
     29 H15          3.4070    -0.8210     2.4230 hc         1 AWQ       0.025700
@<TRIPOS>BOND
     1     6    16 1
     2     5    16 1
     3     5    11 1
     4    16     8 1
     5     3     1 1
     6    11     1 2
     7    11     4 1
     8    10    13 1
     9    13    12 1
    10    13     9 1
    11    12    14 1
    12     1     7 1
    13    14     4 1
    14     4     2 2
    15     7     2 1
    16     2    15 1
    17     3    17 1
    18     3    18 1
    19     3    19 1
    20     5    20 1
    21     5    21 1
    22     7    22 1
    23    12    23 1
    24    12    24 1
    25    14    25 1
    26    14    26 1
    27    15    27 1
    28    15    28 1
    29    15    29 1
@<TRIPOS>SUBSTRUCTURE
     1 AWQ         1 TEMP              0 ****  ****    0 ROOT
