@<TRIPOS>MOLECULE
AWR
   43    45     1     0     0
SMALL
bcc


@<TRIPOS>ATOM
      1 FAC          0.0000     0.0000     0.0000 f          1 AWR      -0.207300
      2 CAX          1.3990     0.0000     0.0000 c3         1 AWR       0.539600
      3 FAD          1.8660     0.0000     1.3190 f          1 AWR      -0.207300
      4 FAE          1.8660    -1.1410    -0.6600 f          1 AWR      -0.207300
      5 CAR          1.9010     1.2320    -0.7100 ca         1 AWR       0.231600
      6 CAV          1.6740     2.4860    -0.1580 ca         1 AWR      -0.237500
      7 NAO          2.5560     1.1090    -1.8460 nb         1 AWR      -0.477000
      8 CAF          3.0200     2.1500    -2.5140 ca         1 AWR       0.359200
      9 CAH          2.8370     3.4340    -2.0430 ca         1 AWR      -0.111300
     10 CAT          2.1540     3.6160    -0.8420 cp         1 AWR      -0.048000
     11 CAS          1.7750     4.7870    -0.0370 cp         1 AWR      -0.126000
     12 CAI          1.9640     6.1600    -0.1900 ca         1 AWR       0.023000
     13 CAG          1.4790     7.0310     0.7590 ca         1 AWR      -0.224000
     14 CAQ          0.7990     6.5450     1.8720 ca         1 AWR       0.199100
     15 OAP          0.3240     7.4120     2.8050 os         1 AWR      -0.309900
     16 CAA          0.5590     8.8020     2.5760 c3         1 AWR       0.243700
     17 CAJ          0.6040     5.1850     2.0350 ca         1 AWR      -0.182000
     18 CAU          1.0880     4.2930     1.0840 ca         1 AWR      -0.124200
     19 NAW          1.0390     2.9140     0.9940 na         1 AWR       0.382700
     20 CAN          0.4040     2.0320     1.9760 c3         1 AWR      -0.070700
     21 CAM          1.3810     1.7600     3.1220 c3         1 AWR      -0.053400
     22 CAL          0.7700     0.7370     4.0820 c3         1 AWR      -0.030400
     23 CAK          1.7450     0.4640     5.2280 c3         1 AWR      -0.053200
     24 NAB          1.1580    -0.5180     6.1490 nz         1 AWR       0.087400
     25 HAF          3.5530     1.9930    -3.4440 h4         1 AWR      -0.001900
     26 HAH          3.2200     4.2840    -2.5950 ha         1 AWR       0.122000
     27 HAI          2.4930     6.5410    -1.0560 ha         1 AWR       0.109000
     28 HAG          1.6270     8.0970     0.6400 ha         1 AWR       0.133000
     29 HAJ          0.0740     4.8150     2.9040 ha         1 AWR       0.112000
     30 HAA1         0.0970     9.0970     1.6410 h1         1 AWR       0.003700
     31 HAA2         1.6250     8.9850     2.5250 h1         1 AWR       0.003700
     32 HAA3         0.1310     9.3780     3.3870 h1         1 AWR       0.003700
     33 HAN1         0.1350     1.0960     1.5010 h1         1 AWR       0.052700
     34 HAN2        -0.4870     2.5080     2.3670 h1         1 AWR       0.052700
     35 HAM1         1.5780     2.6820     3.6550 hc         1 AWR       0.045700
     36 HAM2         2.3080     1.3690     2.7210 hc         1 AWR       0.045700
     37 HAL1         0.5720    -0.1850     3.5490 hc         1 AWR       0.036200
     38 HAL2        -0.1580     1.1280     4.4830 hc         1 AWR       0.036200
     39 HAK1         2.6720     0.0730     4.8260 hx         1 AWR       0.087700
     40 HAK2         1.9430     1.3860     5.7610 hx         1 AWR       0.087700
     41 HAB1         1.7820    -0.6690     6.9170 hn         1 AWR       0.223800
     42 HAB2         1.0080    -1.3810     5.6650 hn         1 AWR       0.223800
     43 HAB3         0.2840    -0.1720     6.4920 hn         1 AWR       0.223800
@<TRIPOS>BOND
     1     1     2 1   
     2     2     3 1   
     3     2     4 1   
     4     2     5 1   
     5     5     6 ar  
     6     5     7 ar  
     7     6    10 ar  
     8     6    19 1   
     9     7     8 ar  
    10     8     9 ar  
    11     8    25 1   
    12     9    10 ar  
    13     9    26 1   
    14    10    11 1   
    15    11    12 ar  
    16    11    18 ar  
    17    12    13 ar  
    18    12    27 1   
    19    13    14 ar  
    20    13    28 1   
    21    14    15 1   
    22    14    17 ar  
    23    15    16 1   
    24    16    30 1   
    25    16    31 1   
    26    16    32 1   
    27    17    18 ar  
    28    17    29 1   
    29    18    19 1   
    30    19    20 1   
    31    20    21 1   
    32    20    33 1   
    33    20    34 1   
    34    21    22 1   
    35    21    35 1   
    36    21    36 1   
    37    22    23 1   
    38    22    37 1   
    39    22    38 1   
    40    23    24 1   
    41    23    39 1   
    42    23    40 1   
    43    24    41 1   
    44    24    42 1   
    45    24    43 1   
@<TRIPOS>SUBSTRUCTURE
     1 AWR         1 TEMP              0 ****  ****    0 ROOT
