@<TRIPOS>MOLECULE
AWS
   32    33     1     0     0
SMALL
bcc


@<TRIPOS>ATOM
      1 N1           0.0000     0.0000     0.0000 n3         1 AWS      -0.538600
      2 C4          -2.1240    -3.8550     1.5450 c          1 AWS       0.790800
      3 C5          -2.5050    -1.5420     1.3980 ca         1 AWS       0.218100
      4 C6          -3.8950    -1.7560     1.3680 ca         1 AWS      -0.191800
      5 C7          -4.7690    -0.6670     1.2760 ca         1 AWS      -0.015000
      6 C8          -4.2690     0.6010     1.2170 ca         1 AWS      -0.203000
      7 C10         -2.0130    -0.2470     1.3380 ca         1 AWS      -0.150300
      8 C13          1.4690     0.0000     0.0000 c3         1 AWS       0.178100
      9 C2          -4.4040    -3.1280     1.4250 cc         1 AWS       0.037600
     10 C3          -3.5040    -4.1420     1.5130 cd         1 AWS      -0.272200
     11 O1          -1.3280    -4.7740     1.6230 o          1 AWS      -0.627500
     12 O2          -1.6640    -2.5960     1.4860 os         1 AWS      -0.266200
     13 C9          -2.8930     0.8190     1.2480 ca         1 AWS       0.187100
     14 C11         -0.5270     0.0000     1.3710 c3         1 AWS       0.222100
     15 C12         -0.5270     1.1370    -0.7660 c3         1 AWS       0.178100
     16 O3          -2.4110     2.0860     1.1880 oh         1 AWS      -0.486100
     17 H2          -5.8400    -0.8310     1.2520 ha         1 AWS       0.111000
     18 H3          -4.9460     1.4440     1.1460 ha         1 AWS       0.117000
     19 H4           1.8300    -0.8610     0.5490 h1         1 AWS       0.003533
     20 H5           1.8300    -0.0450    -1.0200 h1         1 AWS       0.003533
     21 H6           1.8300     0.9060     0.4710 h1         1 AWS       0.003533
     22 H7          -6.3600    -2.9180     2.2360 hc         1 AWS       0.017700
     23 H8          -6.3030    -3.0290     0.4710 hc         1 AWS       0.017700
     24 H9          -6.0500    -4.4760     1.4570 hc         1 AWS       0.017700
     25 H10         -3.8420    -5.1710     1.4780 ha         1 AWS       0.143000
     26 H11         -0.3300     0.9600     1.8330 h1         1 AWS       0.021200
     27 H12         -0.0430    -0.7820     1.9430 h1         1 AWS       0.021200
     28 H13          0.0540     1.2610    -1.6730 h1         1 AWS       0.003533
     29 H14         -1.5620     0.9510    -1.0240 h1         1 AWS       0.003533
     30 H15         -0.4590     2.0380    -0.1680 h1         1 AWS       0.003533
     31 H16         -2.8350     2.6150     1.8430 ho         1 AWS       0.406000
     32 C1          -5.8830    -3.4070     1.3950 c3         1 AWS       0.047100
@<TRIPOS>BOND
     1     1     8 1   
     2     1    14 1   
     3     1    15 1   
     4     2    10 1   
     5     2    11 2   
     6     2    12 1   
     7     3     4 ar  
     8     3     7 ar  
     9     3    12 1   
    10     4     5 ar  
    11     4     9 1   
    12     5     6 ar  
    13     5    17 1   
    14     6    13 ar  
    15     6    18 1   
    16     7    13 ar  
    17     7    14 1   
    18     8    19 1   
    19     8    20 1   
    20     8    21 1   
    21     9    10 2   
    22     9    32 1   
    23    10    25 1   
    24    13    16 1   
    25    14    26 1   
    26    14    27 1   
    27    15    28 1   
    28    15    29 1   
    29    15    30 1   
    30    16    31 1   
    31    22    32 1   
    32    23    32 1   
    33    24    32 1   
@<TRIPOS>SUBSTRUCTURE
     1 AWS         1 TEMP              0 ****  ****    0 ROOT
