@<TRIPOS>MOLECULE
molecule
   32    33     1     0     0
SMALL
bcc


@<TRIPOS>ATOM
      1 N1           0.0000     0.0000     0.0000 n3         1 AWS      -0.724600
      2 C4          -2.1240    -3.8550     1.5450 c          1 AWS       0.740800
      3 C5          -2.5050    -1.5420     1.3980 ca         1 AWS       0.207100
      4 C6          -3.8950    -1.7560     1.3680 ca         1 AWS      -0.176800
      5 C7          -4.7690    -0.6670     1.2760 ca         1 AWS      -0.051000
      6 C8          -4.2690     0.6010     1.2170 ca         1 AWS      -0.215000
      7 C10         -2.0130    -0.2470     1.3380 ca         1 AWS      -0.117300
      8 C13          1.4690     0.0000     0.0000 c3         1 AWS       0.151600
      9 C2          -4.4040    -3.1280     1.4250 cc         1 AWS       0.026600
     10 C3          -3.5040    -4.1420     1.5130 cd         1 AWS      -0.282200
     11 O1          -1.3280    -4.7740     1.6230 o          1 AWS      -0.579500
     12 O2          -1.6640    -2.5960     1.4860 os         1 AWS      -0.296200
     13 C9          -2.8930     0.8190     1.2480 ca         1 AWS       0.163100
     14 C11         -0.5270     0.0000     1.3710 c3         1 AWS       0.220100
     15 C12         -0.5270     1.1370    -0.7660 c3         1 AWS       0.151600
     16 O3          -2.4110     2.0860     1.1880 oh         1 AWS      -0.505100
     17 H2          -5.8400    -0.8310     1.2520 ha         1 AWS       0.141000
     18 H3          -4.9460     1.4440     1.1460 ha         1 AWS       0.141000
     19 H4           1.8300    -0.8610     0.5490 h1         1 AWS       0.033867
     20 H5           1.8300    -0.0450    -1.0200 h1         1 AWS       0.033867
     21 H6           1.8300     0.9060     0.4710 h1         1 AWS       0.033867
     22 H7          -6.3600    -2.9180     2.2360 hc         1 AWS       0.055033
     23 H8          -6.3030    -3.0290     0.4710 hc         1 AWS       0.055033
     24 H9          -6.0500    -4.4760     1.4570 hc         1 AWS       0.055033
     25 H10         -3.8420    -5.1710     1.4780 ha         1 AWS       0.169000
     26 H11         -0.3300     0.9600     1.8330 h1         1 AWS       0.050200
     27 H12         -0.0430    -0.7820     1.9430 h1         1 AWS       0.050200
     28 H13          0.0540     1.2610    -1.6730 h1         1 AWS       0.033867
     29 H14         -1.5620     0.9510    -1.0240 h1         1 AWS       0.033867
     30 H15         -0.4590     2.0380    -0.1680 h1         1 AWS       0.033867
     31 H16         -2.8350     2.6150     1.8430 ho         1 AWS       0.425000
     32 C1          -5.8830    -3.4070     1.3950 c3         1 AWS      -0.060900
@<TRIPOS>BOND
     1    15     1 1
     2     8     1 1
     3     6     5 ar
     4     6    13 ar
     5    16    13 1
     6     5     4 ar
     7     1    14 1
     8    13     7 ar
     9     4     3 ar
    10     4     9 1
    11     7     3 ar
    12     7    14 1
    13    32     9 1
    14     3    12 1
    15     9    10 2
    16    10     2 1
    17    12     2 1
    18     2    11 2
    19     5    17 1
    20     6    18 1
    21     8    19 1
    22     8    20 1
    23     8    21 1
    24    32    22 1
    25    32    23 1
    26    32    24 1
    27    10    25 1
    28    14    26 1
    29    14    27 1
    30    15    28 1
    31    15    29 1
    32    15    30 1
    33    16    31 1
@<TRIPOS>SUBSTRUCTURE
     1 AWS         1 TEMP              0 ****  ****    0 ROOT
