@<TRIPOS>MOLECULE
molecule
   52    55     1     0     0
SMALL
bcc


@<TRIPOS>ATOM
      1 C4           0.0000     0.0000     0.0000 ca         1 AWT      -0.168000
      2 C14          0.0860     0.0200    -4.7830 c3         1 AWT       0.124700
      3 C5           1.4000     0.0000     0.0000 ca         1 AWT      -0.326600
      4 C6           2.1480     0.0000     1.2010 ca         1 AWT       0.752200
      5 C11          1.3950     0.0020    -2.4320 ca         1 AWT      -0.271300
      6 C8           4.0900     0.0010    -0.0550 ca         1 AWT       0.732300
      7 C10          2.1080     0.0010    -1.2280 ca         1 AWT       0.492600
      8 C12          0.0170     0.0070    -2.4070 ca         1 AWT       0.163100
      9 C3          -2.6840    -0.0110     0.0860 c3         1 AWT       0.127700
     10 O13         -0.6770     0.0160    -3.5740 os         1 AWT      -0.309900
     11 C1          -0.6760     0.0010    -1.1880 ca         1 AWT       0.109100
     12 O2          -2.0350    -0.0050    -1.1880 os         1 AWT      -0.312900
     13 N9           3.4490     0.0020    -1.1990 nb         1 AWT      -0.780000
     14 C15          5.5970     0.0030    -0.0730 c3         1 AWT      -0.122400
     15 N7           3.4720     0.0010     1.1160 nb         1 AWT      -0.836000
     16 N16          1.5180     0.0000     2.4280 nu         1 AWT      -0.896900
     17 C17          2.3110    -0.0000     3.6600 c3         1 AWT       0.287800
     18 C29          2.6940    -1.4370     4.0200 c3         1 AWT      -0.104100
     19 C18          1.5010     0.6000     4.7800 ca         1 AWT      -0.088300
     20 C19          2.1040     1.4430     5.6920 ca         1 AWT      -0.115000
     21 C28          0.1540     0.3110     4.8880 ca         1 AWT      -0.142000
     22 C27         -0.5960     0.8590     5.9130 ca         1 AWT      -0.116000
     23 C26         -0.0010     1.6970     6.8350 ca         1 AWT      -0.133000
     24 C20          1.3550     1.9970     6.7270 ca         1 AWT       0.022000
     25 C21          1.9990     2.9040     7.7110 cc         1 AWT      -0.267300
     26 C22          3.3520     3.2920     7.7230 cc         1 AWT       0.351200
     27 C25          1.3850     3.5160     8.7640 cd         1 AWT      -0.098300
     28 N24          2.3150     4.2490     9.4080 na         1 AWT      -0.039600
     29 N23          3.5350     4.0930     8.7390 nd         1 AWT      -0.507800
     30 H1          -0.5450    -0.0040     0.9360 ha         1 AWT       0.133000
     31 H2           0.6930     0.9160    -4.8230 h1         1 AWT       0.045367
     32 H3           0.7280    -0.8520    -4.8080 h1         1 AWT       0.045367
     33 H4          -0.5850    -0.0000    -5.6330 h1         1 AWT       0.045367
     34 H5           1.9190     0.1220    -3.3720 ha         1 AWT       0.162000
     35 H6          -2.3880    -0.8950     0.6380 h1         1 AWT       0.040367
     36 H7          -2.3980     0.8740     0.6410 h1         1 AWT       0.040367
     37 H8          -3.7580    -0.0170    -0.0560 h1         1 AWT       0.040367
     38 H9           5.9630    -0.9650     0.2470 hc         1 AWT       0.057367
     39 H10          5.9460     0.2070    -1.0780 hc         1 AWT       0.057367
     40 H11          5.9650     0.7690     0.5990 hc         1 AWT       0.057367
     41 H12          0.5190     0.0290     2.4770 hn         1 AWT       0.448800
     42 H13          3.2100     0.5860     3.5100 h1         1 AWT       0.088700
     43 H14          2.2120    -2.1220     3.3330 hc         1 AWT       0.046700
     44 H15          2.3710    -1.6530     5.0320 hc         1 AWT       0.046700
     45 H16          3.7690    -1.5520     3.9510 hc         1 AWT       0.046700
     46 H17          3.1590     1.6720     5.6030 ha         1 AWT       0.136000
     47 H18         -0.3170    -0.3460     4.1670 ha         1 AWT       0.122000
     48 H19         -1.6520     0.6280     5.9950 ha         1 AWT       0.130000
     49 H20         -0.5890     2.1260     7.6370 ha         1 AWT       0.127000
     50 H21          4.1100     2.9790     7.0160 h4         1 AWT       0.053100
     51 H22          0.3390     3.4280     9.0350 h4         1 AWT       0.173000
     52 H23          2.1600     4.8090    10.2220 hn         1 AWT       0.331700
@<TRIPOS>BOND
     1    18    17 1
     2    17    19 1
     3    17    16 1
     4    21    19 ar
     5    21    22 ar
     6    19    20 ar
     7    22    23 ar
     8    16     4 1
     9    20    24 ar
    10    23    24 ar
    11    24    25 1
    12    15     4 ar
    13    15     6 ar
    14     4     3 ar
    15    27    25 2
    16    27    28 1
    17    25    26 1
    18    14     6 1
    19     6    13 ar
    20     3     1 ar
    21     3     7 ar
    22     1    11 ar
    23    28    29 1
    24    26    29 2
    25     9    12 1
    26    13     7 ar
    27     7     5 ar
    28    11    12 1
    29    11     8 ar
    30     5     8 ar
    31     8    10 1
    32    10     2 1
    33     1    30 1
    34     2    31 1
    35     2    32 1
    36     2    33 1
    37     5    34 1
    38     9    35 1
    39     9    36 1
    40     9    37 1
    41    14    38 1
    42    14    39 1
    43    14    40 1
    44    16    41 1
    45    17    42 1
    46    18    43 1
    47    18    44 1
    48    18    45 1
    49    20    46 1
    50    21    47 1
    51    22    48 1
    52    23    49 1
    53    26    50 1
    54    27    51 1
    55    28    52 1
@<TRIPOS>SUBSTRUCTURE
     1 AWT         1 TEMP              0 ****  ****    0 ROOT
