@<TRIPOS>MOLECULE
AWT
   52    55     1     0     0
SMALL
bcc


@<TRIPOS>ATOM
      1 C4           0.0000     0.0000     0.0000 ca         1 AWT      -0.162000
      2 C14          0.0860     0.0200    -4.7830 c3         1 AWT       0.239700
      3 C5           1.4000     0.0000     0.0000 ca         1 AWT      -0.319600
      4 C6           2.1480     0.0000     1.2010 ca         1 AWT       0.569200
      5 C11          1.3950     0.0020    -2.4320 ca         1 AWT      -0.264300
      6 C8           4.0900     0.0010    -0.0550 ca         1 AWT       0.651300
      7 C10          2.1080     0.0010    -1.2280 ca         1 AWT       0.459600
      8 C12          0.0170     0.0070    -2.4070 ca         1 AWT       0.166100
      9 C3          -2.6840    -0.0110     0.0860 c3         1 AWT       0.241700
     10 O13         -0.6770     0.0160    -3.5740 os         1 AWT      -0.292900
     11 C1          -0.6760     0.0010    -1.1880 ca         1 AWT       0.113100
     12 O2          -2.0350    -0.0050    -1.1880 os         1 AWT      -0.291900
     13 N9           3.4490     0.0020    -1.1990 nb         1 AWT      -0.682000
     14 C15          5.5970     0.0030    -0.0730 c3         1 AWT      -0.034400
     15 N7           3.4720     0.0010     1.1160 nb         1 AWT      -0.731000
     16 N16          1.5180     0.0000     2.4280 nu         1 AWT      -0.491900
     17 C17          2.3110    -0.0000     3.6600 c3         1 AWT       0.190800
     18 C29          2.6940    -1.4370     4.0200 c3         1 AWT      -0.014100
     19 C18          1.5010     0.6000     4.7800 ca         1 AWT      -0.095300
     20 C19          2.1040     1.4430     5.6920 ca         1 AWT      -0.091000
     21 C28          0.1540     0.3110     4.8880 ca         1 AWT      -0.122000
     22 C27         -0.5960     0.8590     5.9130 ca         1 AWT      -0.086000
     23 C26         -0.0010     1.6970     6.8350 ca         1 AWT      -0.111000
     24 C20          1.3550     1.9970     6.7270 ca         1 AWT       0.036000
     25 C21          1.9990     2.9040     7.7110 cc         1 AWT      -0.272300
     26 C22          3.3520     3.2920     7.7230 cc         1 AWT       0.412200
     27 C25          1.3850     3.5160     8.7640 cd         1 AWT      -0.255300
     28 N24          2.3150     4.2490     9.4080 na         1 AWT       0.460400
     29 N23          3.5350     4.0930     8.7390 nd         1 AWT      -0.661800
     30 H1          -0.5450    -0.0040     0.9360 ha         1 AWT       0.121000
     31 H2           0.6930     0.9160    -4.8230 h1         1 AWT       0.000700
     32 H3           0.7280    -0.8520    -4.8080 h1         1 AWT       0.000700
     33 H4          -0.5850    -0.0000    -5.6330 h1         1 AWT       0.000700
     34 H5           1.9190     0.1220    -3.3720 ha         1 AWT       0.141000
     35 H6          -2.3880    -0.8950     0.6380 h1         1 AWT      -0.003300
     36 H7          -2.3980     0.8740     0.6410 h1         1 AWT      -0.003300
     37 H8          -3.7580    -0.0170    -0.0560 h1         1 AWT      -0.003300
     38 H9           5.9630    -0.9650     0.2470 hc         1 AWT       0.016367
     39 H10          5.9460     0.2070    -1.0780 hc         1 AWT       0.016367
     40 H11          5.9650     0.7690     0.5990 hc         1 AWT       0.016367
     41 H12          0.5190     0.0290     2.4770 hn         1 AWT       0.304800
     42 H13          3.2100     0.5860     3.5100 h1         1 AWT       0.061700
     43 H14          2.2120    -2.1220     3.3330 hc         1 AWT       0.014367
     44 H15          2.3710    -1.6530     5.0320 hc         1 AWT       0.014367
     45 H16          3.7690    -1.5520     3.9510 hc         1 AWT       0.014367
     46 H17          3.1590     1.6720     5.6030 ha         1 AWT       0.116000
     47 H18         -0.3170    -0.3460     4.1670 ha         1 AWT       0.102000
     48 H19         -1.6520     0.6280     5.9950 ha         1 AWT       0.102000
     49 H20         -0.5890     2.1260     7.6370 ha         1 AWT       0.105000
     50 H21          4.1100     2.9790     7.0160 h4         1 AWT       0.009100
     51 H22          0.3390     3.4280     9.0350 h4         1 AWT       0.148000
     52 H23          2.1600     4.8090    10.2220 hn         1 AWT       0.147700
@<TRIPOS>BOND
     1     1     3 ar  
     2     1    11 ar  
     3     1    30 1   
     4     2    10 1   
     5     2    31 1   
     6     2    32 1   
     7     2    33 1   
     8     3     4 ar  
     9     3     7 ar  
    10     4    15 ar  
    11     4    16 1   
    12     5     7 ar  
    13     5     8 ar  
    14     5    34 1   
    15     6    13 ar  
    16     6    14 1   
    17     6    15 ar  
    18     7    13 ar  
    19     8    10 1   
    20     8    11 ar  
    21     9    12 1   
    22     9    35 1   
    23     9    36 1   
    24     9    37 1   
    25    11    12 1   
    26    14    38 1   
    27    14    39 1   
    28    14    40 1   
    29    16    17 1   
    30    16    41 1   
    31    17    18 1   
    32    17    19 1   
    33    17    42 1   
    34    18    43 1   
    35    18    44 1   
    36    18    45 1   
    37    19    20 ar  
    38    19    21 ar  
    39    20    24 ar  
    40    20    46 1   
    41    21    22 ar  
    42    21    47 1   
    43    22    23 ar  
    44    22    48 1   
    45    23    24 ar  
    46    23    49 1   
    47    24    25 1   
    48    25    26 1   
    49    25    27 2   
    50    26    29 2   
    51    26    50 1   
    52    27    28 1   
    53    27    51 1   
    54    28    29 1   
    55    28    52 1   
@<TRIPOS>SUBSTRUCTURE
     1 AWT         1 TEMP              0 ****  ****    0 ROOT
