@<TRIPOS>MOLECULE
molecule
   37    39     1     0     0
SMALL
bcc


@<TRIPOS>ATOM
      1 N1           0.0000     0.0000     0.0000 na         1 AWV      -0.183400
      2 C4           1.3770     0.0000     0.0000 ca         1 AWV      -0.041200
      3 C5           1.7930     0.0000     1.3440 ca         1 AWV      -0.084800
      4 C6           3.1550    -0.0050     1.6510 ca         1 AWV      -0.068000
      5 C7           0.5680    -0.0010     2.1460 cc         1 AWV      -0.145400
      6 C8          -0.4640     0.0050     1.2880 cd         1 AWV      -0.104100
      7 C10          1.1060    -1.2920     5.5290 c3         1 AWV       0.178800
      8 C13          0.3710    -4.4940     4.9330 c3         1 AWV      -0.080900
      9 C15         -0.1910    -2.3300     3.7690 c3         1 AWV       0.178800
     10 C1           4.0790    -0.0030     0.6440 ca         1 AWV      -0.162000
     11 C2           3.6730     0.0030    -0.6830 ca         1 AWV      -0.108000
     12 C3           2.3350     0.0010    -1.0100 ca         1 AWV      -0.148000
     13 C9           0.4820    -0.0010     3.6510 c3         1 AWV       0.246000
     14 N2           0.8260    -1.3350     4.1610 n3         1 AWV      -0.743600
     15 C11          1.6880    -2.6290     6.0380 c3         1 AWV      -0.080400
     16 C12          0.5680    -3.6260     6.1900 c3         1 AWV      -0.080900
     17 C14          0.4910    -3.6690     3.6390 c3         1 AWV      -0.080400
     18 H1          -0.5750     0.0030    -0.8190 hn         1 AWV       0.294700
     19 H2           3.4780    -0.0110     2.6850 ha         1 AWV       0.135000
     20 H3          -1.5100     0.0150     1.5710 h4         1 AWV       0.162000
     21 H5           0.1910    -1.0790     6.0690 h1         1 AWV       0.028950
     22 H6          -0.6120    -4.9480     4.9700 hc         1 AWV       0.036450
     23 H7           1.1250    -5.2730     4.9230 hc         1 AWV       0.036450
     24 H8          -0.9600    -2.3850     4.5300 h1         1 AWV       0.028950
     25 H9          -0.6280    -2.0500     2.8180 h1         1 AWV       0.028950
     26 H10          5.1350    -0.0010     0.8830 ha         1 AWV       0.127000
     27 H11          4.4160     0.0050    -1.4710 ha         1 AWV       0.127000
     28 H12          2.0290     0.0060    -2.0490 ha         1 AWV       0.123000
     29 H13          1.1740     0.7290     4.0530 h1         1 AWV       0.035200
     30 H14         -0.5270     0.2520     3.9560 h1         1 AWV       0.035200
     31 H16          2.1670    -2.4730     6.9970 hc         1 AWV       0.051450
     32 H17          2.4110    -3.0040     5.3230 hc         1 AWV       0.051450
     33 H18          0.7890    -4.2730     7.0300 hc         1 AWV       0.036450
     34 H19         -0.3520    -3.0880     6.3890 hc         1 AWV       0.036450
     35 H20          1.5390    -3.5110     3.4180 hc         1 AWV       0.051450
     36 H21          0.0320    -4.2200     2.8270 hc         1 AWV       0.051450
     37 H4           1.8240    -0.5020     5.7160 h1         1 AWV       0.028950
@<TRIPOS>BOND
     1     8    16 1
     2     8    17 1
     3    16    15 1
     4    17     9 1
     5    15     7 1
     6     9    14 1
     7     7    14 1
     8    14    13 1
     9     4    10 ar
    10     4     3 ar
    11    10    11 ar
    12    13     5 1
    13     3     5 1
    14     3     2 ar
    15    11    12 ar
    16     5     6 2
    17     2    12 ar
    18     2     1 1
    19     6     1 1
    20     1    18 1
    21     4    19 1
    22     6    20 1
    23     7    37 1
    24     7    21 1
    25     8    22 1
    26     8    23 1
    27     9    24 1
    28     9    25 1
    29    10    26 1
    30    11    27 1
    31    12    28 1
    32    13    29 1
    33    13    30 1
    34    15    31 1
    35    15    32 1
    36    16    33 1
    37    16    34 1
    38    17    35 1
    39    17    36 1
@<TRIPOS>SUBSTRUCTURE
     1 AWV         1 TEMP              0 ****  ****    0 ROOT
