@<TRIPOS>MOLECULE
molecule
   58    61     1     0     0
SMALL
bcc


@<TRIPOS>ATOM
      1 C4           0.0000     0.0000     0.0000 ca         1 AWW       0.512600
      2 C6          -1.9680     0.4130    -1.1260 ca         1 AWW       0.730300
      3 C7          -2.6600     0.8770    -2.3820 c3         1 AWW      -0.122400
      4 C13         -4.9200    -1.7900     2.9720 cc         1 AWW      -0.049400
      5 C15         -6.3120    -3.4340     3.7520 cd         1 AWW      -0.144000
      6 C20         -7.1520    -4.9230     7.8590 ca         1 AWW      -0.129000
      7 C21         -6.0640    -5.5570     8.4330 ca         1 AWW      -0.125000
      8 C22         -4.8130    -5.4630     7.8500 ca         1 AWW      -0.100000
      9 C24         -3.2790    -4.6340     6.0560 c3         1 AWW       0.183700
     10 C26          1.5010     0.0000     0.0000 c3         1 AWW      -0.103500
     11 C29          4.3660    -0.3740     1.0080 c3         1 AWW       0.131700
     12 O28          3.3290     0.4230     1.5830 os         1 AWW      -0.330900
     13 C27          2.0490     0.0000     1.3930 c2         1 AWW       0.043900
     14 C1           1.3630    -0.3840     2.4370 c2         1 AWW       0.040900
     15 O30          1.9650    -0.3420     3.6560 os         1 AWW      -0.331900
     16 C31          2.1910    -1.5910     4.3110 c3         1 AWW       0.132700
     17 C2          -0.0520    -0.8680     2.3580 c3         1 AWW       0.006100
     18 C3          -0.7210    -0.4110     1.0960 ca         1 AWW      -0.396900
     19 N5          -0.6520     0.4000    -1.0880 nb         1 AWW      -0.784000
     20 N8          -2.6970     0.0220    -0.1000 nb         1 AWW      -0.814000
     21 C9          -2.1170    -0.3860     1.0240 ca         1 AWW       0.740200
     22 N10         -2.8840    -0.7970     2.1020 nu         1 AWW      -0.907900
     23 C11         -4.3460    -0.7840     2.0090 c3         1 AWW       0.321800
     24 C12         -4.8670     0.6110     2.3580 c3         1 AWW      -0.106100
     25 S17         -4.3290    -2.0810     4.6030 ss         1 AWW      -0.164800
     26 C14         -5.9590    -2.5920     2.7200 cd         1 AWW      -0.142000
     27 C16         -5.5590    -3.3110     4.8630 cc         1 AWW       0.024900
     28 C18         -5.7350    -4.0930     6.1060 ca         1 AWW      -0.018000
     29 C19         -6.9940    -4.1920     6.6990 ca         1 AWW      -0.108000
     30 C23         -4.6420    -4.7350     6.6910 ca         1 AWW      -0.075300
     31 O25         -2.3350    -5.3710     6.8360 oh         1 AWW      -0.610800
     32 H1          -2.8220     0.0300    -3.0380 hc         1 AWW       0.059700
     33 H2          -3.6130     1.3220    -2.1260 hc         1 AWW       0.059700
     34 H3          -2.0410     1.6100    -2.8850 hc         1 AWW       0.059700
     35 H4          -7.1350    -4.1350     3.6790 ha         1 AWW       0.155000
     36 H5          -8.1290    -5.0000     8.3200 ha         1 AWW       0.132000
     37 H6          -6.1930    -6.1300     9.3440 ha         1 AWW       0.132000
     38 H7          -3.9660    -5.9610     8.3040 ha         1 AWW       0.156000
     39 H8          -3.3160    -5.0420     5.0530 h1         1 AWW       0.037200
     40 H9          -2.9770    -3.5940     6.0120 h1         1 AWW       0.037200
     41 H10          1.8530     0.8840    -0.5180 hc         1 AWW       0.081200
     42 H11          1.8530    -0.8840    -0.5180 hc         1 AWW       0.081200
     43 H12          5.2570    -0.3030     1.6190 h1         1 AWW       0.034033
     44 H13          4.5840    -0.0160     0.0090 h1         1 AWW       0.034033
     45 H14          4.0440    -1.4070     0.9590 h1         1 AWW       0.034033
     46 H15          3.1180    -1.5430     4.8690 h1         1 AWW       0.032367
     47 H16          2.2560    -2.3800     3.5710 h1         1 AWW       0.032367
     48 H17          1.3720    -1.7980     4.9880 h1         1 AWW       0.032367
     49 H18         -0.5990    -0.4640     3.2010 hc         1 AWW       0.059700
     50 H19         -0.0440    -1.9520     2.3670 hc         1 AWW       0.059700
     51 H20         -2.4390    -1.1070     2.9430 hn         1 AWW       0.450800
     52 H21         -4.6460    -1.0390     0.9990 h1         1 AWW       0.092700
     53 H22         -4.4290     0.9360     3.2940 hc         1 AWW       0.048033
     54 H23         -5.9450     0.5800     2.4550 hc         1 AWW       0.048033
     55 H24         -4.5950     1.3050     1.5720 hc         1 AWW       0.048033
     56 H25         -6.4810    -2.5850     1.7700 ha         1 AWW       0.153000
     57 H26         -7.8460    -3.6960     6.2500 ha         1 AWW       0.137000
     58 H27         -1.5280    -5.4560     6.3550 ho         1 AWW       0.405000
@<TRIPOS>BOND
     1    24    23 1
     2     6    29 ar
     3     6     7 ar
     4    29    28 ar
     5    23     4 1
     6    23    22 1
     7    25     4 1
     8    25    27 1
     9     4    26 2
    10     7     8 ar
    11    27    28 1
    12    27     5 2
    13    28    30 ar
    14    26     5 1
    15    22    21 1
    16     8    30 ar
    17    30     9 1
    18    21    20 ar
    19    21    18 ar
    20    20     2 ar
    21    17    18 1
    22    17    14 1
    23    18     1 ar
    24     2     3 1
    25     2    19 ar
    26    16    15 1
    27     9    31 1
    28    14    15 1
    29    14    13 2
    30     1    19 ar
    31     1    10 1
    32    13    10 1
    33    13    12 1
    34    12    11 1
    35     3    32 1
    36     3    33 1
    37     3    34 1
    38     5    35 1
    39     6    36 1
    40     7    37 1
    41     8    38 1
    42     9    39 1
    43     9    40 1
    44    10    41 1
    45    10    42 1
    46    11    43 1
    47    11    44 1
    48    11    45 1
    49    16    46 1
    50    16    47 1
    51    16    48 1
    52    17    49 1
    53    17    50 1
    54    22    51 1
    55    23    52 1
    56    24    53 1
    57    24    54 1
    58    24    55 1
    59    26    56 1
    60    29    57 1
    61    31    58 1
@<TRIPOS>SUBSTRUCTURE
     1 AWW         1 TEMP              0 ****  ****    0 ROOT
