@<TRIPOS>MOLECULE
molecule
   35    36     1     0     0
SMALL
bcc


@<TRIPOS>ATOM
      1 N1           0.0000     0.0000     0.0000 ns         1 AWY      -0.593900
      2 C4          -2.2370     0.0040     0.9880 c3         1 AWY      -0.053100
      3 C5          -2.9900     0.0100     2.2930 ca         1 AWY      -0.082300
      4 C6          -3.4220    -1.1610     2.8390 ca         1 AWY      -0.107000
      5 C7          -4.1200    -1.1740     4.0450 ca         1 AWY      -0.137000
      6 C8          -4.3920    -0.0200     4.7110 ca         1 AWY      -0.102000
      7 C10         -3.2480     1.2220     2.9550 ca         1 AWY       0.008000
      8 C13         -3.7820     3.5890     4.3060 ca         1 AWY      -0.203000
      9 C15         -2.9510     5.9680     3.3400 c3         1 AWY       0.128700
     10 C1           2.1020     0.0010    -1.3040 c3         1 AWY      -0.172100
     11 C2           1.3480     0.0000     0.0000 c          1 AWY       0.655100
     12 O1           1.9530     0.0000     1.0510 o          1 AWY      -0.606100
     13 C3          -0.7330     0.0060     1.2680 c3         1 AWY       0.113000
     14 C9          -3.9640     1.2080     4.1790 ca         1 AWY      -0.067000
     15 C11         -2.8140     2.4480     2.4250 ca         1 AWY      -0.169000
     16 C12         -3.0810     3.6070     3.0960 ca         1 AWY       0.145100
     17 C14         -4.2250     2.4210     4.8410 ca         1 AWY      -0.076000
     18 O2          -2.6510     4.7910     2.5870 os         1 AWY      -0.329900
     19 H1          -0.5000    -0.0130    -0.8670 hn         1 AWY       0.310500
     20 H2          -2.4990     0.8860     0.4160 hc         1 AWY       0.052700
     21 H3          -2.4980    -0.8830     0.4240 hc         1 AWY       0.052700
     22 H4          -3.2190    -2.0950     2.3290 ha         1 AWY       0.130000
     23 H5          -4.4530    -2.1190     4.4580 ha         1 AWY       0.130000
     24 H6          -4.9360    -0.0470     5.6480 ha         1 AWY       0.131000
     25 H7          -3.9820     4.5210     4.8210 ha         1 AWY       0.135000
     26 H8          -4.0250     6.0690     3.4400 h1         1 AWY       0.041367
     27 H9          -2.5530     6.8360     2.8280 h1         1 AWY       0.041367
     28 H10         -2.5020     5.8910     4.3230 h1         1 AWY       0.041367
     29 H11          1.8350     0.8830    -1.8750 hc         1 AWY       0.060033
     30 H12          1.8450    -0.8860    -1.8710 hc         1 AWY       0.060033
     31 H13          3.1670     0.0070    -1.1060 hc         1 AWY       0.060033
     32 H14         -0.4720     0.8930     1.8330 h1         1 AWY       0.060200
     33 H15         -0.4720    -0.8760     1.8410 h1         1 AWY       0.060200
     34 H16         -2.2700     2.4750     1.4880 ha         1 AWY       0.149000
     35 H17         -4.7670     2.4230     5.7790 ha         1 AWY       0.134000
@<TRIPOS>BOND
     1    17     8 ar
     2    17    14 ar
     3     6    14 ar
     4     6     5 ar
     5     8    16 ar
     6    14     7 ar
     7     5     4 ar
     8    16    18 1
     9    16    15 ar
    10    18     9 1
    11     7    15 ar
    12     7     3 ar
    13     4     3 ar
    14     3     2 1
    15     2    13 1
    16    13     1 1
    17     1    11 1
    18    11    10 1
    19    11    12 2
    20     1    19 1
    21     2    20 1
    22     2    21 1
    23     4    22 1
    24     5    23 1
    25     6    24 1
    26     8    25 1
    27     9    26 1
    28     9    27 1
    29     9    28 1
    30    10    29 1
    31    10    30 1
    32    10    31 1
    33    13    32 1
    34    13    33 1
    35    15    34 1
    36    17    35 1
@<TRIPOS>SUBSTRUCTURE
     1 AWY         1 TEMP              0 ****  ****    0 ROOT
