@<TRIPOS>MOLECULE
AWY
   35    36     1     0     0
SMALL
bcc


@<TRIPOS>ATOM
      1 N1           0.0000     0.0000     0.0000 ns         1 AWY      -0.207900
      2 C4          -2.2370     0.0040     0.9880 c3         1 AWY       0.014900
      3 C5          -2.9900     0.0100     2.2930 ca         1 AWY      -0.089300
      4 C6          -3.4220    -1.1610     2.8390 ca         1 AWY      -0.080000
      5 C7          -4.1200    -1.1740     4.0450 ca         1 AWY      -0.113000
      6 C8          -4.3920    -0.0200     4.7110 ca         1 AWY      -0.073000
      7 C10         -3.2480     1.2220     2.9550 ca         1 AWY       0.018000
      8 C13         -3.7820     3.5890     4.3060 ca         1 AWY      -0.193000
      9 C15         -2.9510     5.9680     3.3400 c3         1 AWY       0.243700
     10 C1           2.1020     0.0010    -1.3040 c3         1 AWY      -0.067100
     11 C2           1.3480     0.0000     0.0000 c          1 AWY       0.569100
     12 O1           1.9530     0.0000     1.0510 o          1 AWY      -0.645100
     13 C3          -0.7330     0.0060     1.2680 c3         1 AWY       0.047000
     14 C9          -3.9640     1.2080     4.1790 ca         1 AWY      -0.071000
     15 C11         -2.8140     2.4480     2.4250 ca         1 AWY      -0.162000
     16 C12         -3.0810     3.6070     3.0960 ca         1 AWY       0.156100
     17 C14         -4.2250     2.4210     4.8410 ca         1 AWY      -0.040000
     18 O2          -2.6510     4.7910     2.5870 os         1 AWY      -0.308900
     19 H1          -0.5000    -0.0130    -0.8670 hn         1 AWY       0.172500
     20 H2          -2.4990     0.8860     0.4160 hc         1 AWY       0.022700
     21 H3          -2.4980    -0.8830     0.4240 hc         1 AWY       0.022700
     22 H4          -3.2190    -2.0950     2.3290 ha         1 AWY       0.104000
     23 H5          -4.4530    -2.1190     4.4580 ha         1 AWY       0.102000
     24 H6          -4.9360    -0.0470     5.6480 ha         1 AWY       0.104000
     25 H7          -3.9820     4.5210     4.8210 ha         1 AWY       0.119000
     26 H8          -4.0250     6.0690     3.4400 h1         1 AWY      -0.002633
     27 H9          -2.5530     6.8360     2.8280 h1         1 AWY      -0.002633
     28 H10         -2.5020     5.8910     4.3230 h1         1 AWY      -0.002633
     29 H11          1.8350     0.8830    -1.8750 hc         1 AWY       0.021700
     30 H12          1.8450    -0.8860    -1.8710 hc         1 AWY       0.021700
     31 H13          3.1670     0.0070    -1.1060 hc         1 AWY       0.021700
     32 H14         -0.4720     0.8930     1.8330 h1         1 AWY       0.032700
     33 H15         -0.4720    -0.8760     1.8410 h1         1 AWY       0.032700
     34 H16         -2.2700     2.4750     1.4880 ha         1 AWY       0.127000
     35 H17         -4.7670     2.4230     5.7790 ha         1 AWY       0.105000
@<TRIPOS>BOND
     1     1    11 1   
     2     1    13 1   
     3     1    19 1   
     4     2     3 1   
     5     2    13 1   
     6     2    20 1   
     7     2    21 1   
     8     3     4 ar  
     9     3     7 ar  
    10     4     5 ar  
    11     4    22 1   
    12     5     6 ar  
    13     5    23 1   
    14     6    14 ar  
    15     6    24 1   
    16     7    14 ar  
    17     7    15 ar  
    18     8    16 ar  
    19     8    17 ar  
    20     8    25 1   
    21     9    18 1   
    22     9    26 1   
    23     9    27 1   
    24     9    28 1   
    25    10    11 1   
    26    10    29 1   
    27    10    30 1   
    28    10    31 1   
    29    11    12 2   
    30    13    32 1   
    31    13    33 1   
    32    14    17 ar  
    33    15    16 ar  
    34    15    34 1   
    35    16    18 1   
    36    17    35 1   
@<TRIPOS>SUBSTRUCTURE
     1 AWY         1 TEMP              0 ****  ****    0 ROOT
