@<TRIPOS>MOLECULE
molecule
   56    60     1     0     0
SMALL
bcc


@<TRIPOS>ATOM
      1 C4           0.0000     0.0000     0.0000 ca         1 AWZ       0.491600
      2 C14          6.0760     1.4630    -3.3380 cc         1 AWZ      -0.131000
      3 C6           0.0260     0.0030    -2.3030 ca         1 AWZ       0.732300
      4 C11          4.1330     0.0220    -2.6170 c3         1 AWZ       0.321800
      5 C7          -0.7420     0.0020    -3.5990 c3         1 AWZ      -0.122400
      6 C9           2.0840    -0.0000    -1.2480 ca         1 AWZ       0.752200
      7 C12          4.2610    -1.4090    -3.1430 c3         1 AWZ      -0.107100
      8 C13          5.5050     0.6260    -2.4660 cd         1 AWZ      -0.046400
      9 C3           1.4170     0.0000     0.0000 ca         1 AWZ      -0.324600
     10 C23         11.5160     1.0930     1.5980 c3         1 AWZ      -0.098700
     11 C24         10.6980    -0.1880     1.8770 c3         1 AWZ      -0.100400
     12 C25          9.3620     0.1290     1.1700 c3         1 AWZ       0.040300
     13 N19          9.6950     1.0930     0.1120 na         1 AWZ      -0.205900
     14 C20         10.9110     1.6590     0.3290 cd         1 AWZ       0.396800
     15 N21         11.1580     2.5080    -0.6370 nc         1 AWZ      -0.679000
     16 C22         10.1360     2.5230    -1.4980 cc         1 AWZ       0.341200
     17 C18          9.1970     1.6400    -1.0540 cd         1 AWZ      -0.144600
     18 C16          7.8070     1.3970    -1.8280 cd         1 AWZ       0.083900
     19 S17          6.5970     0.3350    -1.1190 ss         1 AWZ      -0.199800
     20 C15          7.3420     1.8910    -2.9950 cc         1 AWZ      -0.146000
     21 N10          3.4620     0.0060    -1.3140 nu         1 AWZ      -0.899900
     22 N8           1.3500     0.0090    -2.3530 nb         1 AWZ      -0.835000
     23 N5          -0.6450    -0.0010    -1.1770 nb         1 AWZ      -0.777000
     24 C26         -0.6880    -0.0050     1.2210 ca         1 AWZ      -0.269300
     25 C2           2.1160     0.0000     1.2140 ca         1 AWZ      -0.171000
     26 C1           1.4250     0.0000     2.3920 ca         1 AWZ       0.112100
     27 O30          2.1040     0.0010     3.5700 os         1 AWZ      -0.311900
     28 C31          3.5310     0.0020     3.4960 c3         1 AWZ       0.126700
     29 C27          0.0230    -0.0050     2.3990 ca         1 AWZ       0.163100
     30 O28         -0.6430    -0.0050     3.5850 os         1 AWZ      -0.310900
     31 C29         -2.0700    -0.0100     3.5270 c3         1 AWZ       0.123700
     32 H2           3.5530     0.6140    -3.3150 h1         1 AWZ       0.096700
     33 H3          -1.7880     0.2000    -3.3990 hc         1 AWZ       0.057700
     34 H4          -0.3480     0.7710    -4.2530 hc         1 AWZ       0.057700
     35 H5          -0.6420    -0.9650    -4.0780 hc         1 AWZ       0.057700
     36 H6           3.6590    -1.5200    -4.0370 hc         1 AWZ       0.048367
     37 H7           3.9160    -2.1040    -2.3870 hc         1 AWZ       0.048367
     38 H8           5.2980    -1.6160    -3.3780 hc         1 AWZ       0.048367
     39 H9          11.4050     1.7960     2.4150 hc         1 AWZ       0.072200
     40 H10         12.5590     0.8470     1.4410 hc         1 AWZ       0.072200
     41 H11         10.5280    -0.2840     2.9430 hc         1 AWZ       0.069700
     42 H12         11.1720    -1.0320     1.3910 hc         1 AWZ       0.069700
     43 H13          8.6950     0.6040     1.8790 h1         1 AWZ       0.065700
     44 H14          8.9850    -0.7780     0.7120 h1         1 AWZ       0.065700
     45 H15         10.0650     3.1330    -2.3900 h4         1 AWZ       0.048100
     46 H16          7.9160     2.5710    -3.6120 ha         1 AWZ       0.158000
     47 H17          4.0030     0.0170    -0.4720 hn         1 AWZ       0.448800
     48 H18         -1.7710    -0.0100     1.2360 ha         1 AWZ       0.163000
     49 H19          3.1940     0.1070     1.2180 ha         1 AWZ       0.134000
     50 H20          3.8640    -0.8700     2.9460 h1         1 AWZ       0.040033
     51 H21          3.8660     0.8980     2.9880 h1         1 AWZ       0.040033
     52 H22          3.9440    -0.0230     4.4970 h1         1 AWZ       0.040033
     53 H23         -2.4070    -0.8960     3.0030 h1         1 AWZ       0.045700
     54 H24         -2.4130     0.8730     3.0020 h1         1 AWZ       0.045700
     55 H25         -2.4710    -0.0110     4.5330 h1         1 AWZ       0.045700
     56 H1           5.5810     1.7810    -4.2470 ha         1 AWZ       0.157000
@<TRIPOS>BOND
     1     7     4 1
     2     4     8 1
     3     4    21 1
     4     2     8 2
     5     2    20 1
     6     8    19 1
     7    21     6 1
     8    20    18 2
     9    19    18 1
    10    18    17 1
    11     6    22 ar
    12     6     9 ar
    13    22     3 ar
    14    17    16 2
    15    17    13 1
    16    16    15 1
    17     9    25 ar
    18     9     1 ar
    19    25    26 ar
    20     3     5 1
    21     3    23 ar
    22    28    27 1
    23    13    12 1
    24    13    14 1
    25    15    14 2
    26    26    27 1
    27    26    29 ar
    28     1    23 ar
    29     1    24 ar
    30    12    11 1
    31    14    10 1
    32    29    24 ar
    33    29    30 1
    34    11    10 1
    35    30    31 1
    36     2    56 1
    37     4    32 1
    38     5    33 1
    39     5    34 1
    40     5    35 1
    41     7    36 1
    42     7    37 1
    43     7    38 1
    44    10    39 1
    45    10    40 1
    46    11    41 1
    47    11    42 1
    48    12    43 1
    49    12    44 1
    50    16    45 1
    51    20    46 1
    52    21    47 1
    53    24    48 1
    54    25    49 1
    55    28    50 1
    56    28    51 1
    57    28    52 1
    58    31    53 1
    59    31    54 1
    60    31    55 1
@<TRIPOS>SUBSTRUCTURE
     1 AWZ         1 TEMP              0 ****  ****    0 ROOT
