@<TRIPOS>MOLECULE
AWZ
   56    60     1     0     0
SMALL
bcc


@<TRIPOS>ATOM
      1 C4           0.0000     0.0000     0.0000 ca         1 AWZ       0.457600
      2 C14          6.0760     1.4630    -3.3380 cc         1 AWZ      -0.092000
      3 C6           0.0260     0.0030    -2.3030 ca         1 AWZ       0.650300
      4 C11          4.1330     0.0220    -2.6170 c3         1 AWZ       0.234800
      5 C7          -0.7420     0.0020    -3.5990 c3         1 AWZ      -0.034400
      6 C9           2.0840    -0.0000    -1.2480 ca         1 AWZ       0.568200
      7 C12          4.2610    -1.4090    -3.1430 c3         1 AWZ      -0.020100
      8 C13          5.5050     0.6260    -2.4660 cd         1 AWZ      -0.017400
      9 C3           1.4170     0.0000     0.0000 ca         1 AWZ      -0.316600
     10 C23         11.5160     1.0930     1.5980 c3         1 AWZ      -0.026700
     11 C24         10.6980    -0.1880     1.8770 c3         1 AWZ      -0.036400
     12 C25          9.3620     0.1290     1.1700 c3         1 AWZ      -0.036700
     13 N19          9.6950     1.0930     0.1120 na         1 AWZ       0.260100
     14 C20         10.9110     1.6590     0.3290 cc         1 AWZ       0.196800
     15 N21         11.1580     2.5080    -0.6370 nd         1 AWZ      -0.588000
     16 C22         10.1360     2.5230    -1.4980 cd         1 AWZ       0.333200
     17 C18          9.1970     1.6400    -1.0540 cc         1 AWZ      -0.307600
     18 C16          7.8070     1.3970    -1.8280 cd         1 AWZ       0.152900
     19 S17          6.5970     0.3350    -1.1190 ss         1 AWZ      -0.313800
     20 C15          7.3420     1.8910    -2.9950 cc         1 AWZ      -0.124000
     21 N10          3.4620     0.0060    -1.3140 nu         1 AWZ      -0.495900
     22 N8           1.3500     0.0090    -2.3530 nb         1 AWZ      -0.731000
     23 N5          -0.6450    -0.0010    -1.1770 nb         1 AWZ      -0.678000
     24 C26         -0.6880    -0.0050     1.2210 ca         1 AWZ      -0.262300
     25 C2           2.1160     0.0000     1.2140 ca         1 AWZ      -0.164000
     26 C1           1.4250     0.0000     2.3920 ca         1 AWZ       0.117100
     27 O30          2.1040     0.0010     3.5700 os         1 AWZ      -0.291900
     28 C31          3.5310     0.0020     3.4960 c3         1 AWZ       0.240700
     29 C27          0.0230    -0.0050     2.3990 ca         1 AWZ       0.165100
     30 O28         -0.6430    -0.0050     3.5850 os         1 AWZ      -0.293900
     31 C29         -2.0700    -0.0100     3.5270 c3         1 AWZ       0.239700
     32 H2           3.5530     0.6140    -3.3150 h1         1 AWZ       0.065700
     33 H3          -1.7880     0.2000    -3.3990 hc         1 AWZ       0.016367
     34 H4          -0.3480     0.7710    -4.2530 hc         1 AWZ       0.016367
     35 H5          -0.6420    -0.9650    -4.0780 hc         1 AWZ       0.016367
     36 H6           3.6590    -1.5200    -4.0370 hc         1 AWZ       0.017033
     37 H7           3.9160    -2.1040    -2.3870 hc         1 AWZ       0.017033
     38 H8           5.2980    -1.6160    -3.3780 hc         1 AWZ       0.017033
     39 H9          11.4050     1.7960     2.4150 hc         1 AWZ       0.032700
     40 H10         12.5590     0.8470     1.4410 hc         1 AWZ       0.032700
     41 H11         10.5280    -0.2840     2.9430 hc         1 AWZ       0.036200
     42 H12         11.1720    -1.0320     1.3910 hc         1 AWZ       0.036200
     43 H13          8.6950     0.6040     1.8790 h1         1 AWZ       0.037700
     44 H14          8.9850    -0.7780     0.7120 h1         1 AWZ       0.037700
     45 H15         10.0650     3.1330    -2.3900 h4         1 AWZ       0.008100
     46 H16          7.9160     2.5710    -3.6120 ha         1 AWZ       0.131000
     47 H17          4.0030     0.0170    -0.4720 hn         1 AWZ       0.307800
     48 H18         -1.7710    -0.0100     1.2360 ha         1 AWZ       0.142000
     49 H19          3.1940     0.1070     1.2180 ha         1 AWZ       0.124000
     50 H20          3.8640    -0.8700     2.9460 h1         1 AWZ      -0.003300
     51 H21          3.8660     0.8980     2.9880 h1         1 AWZ      -0.003300
     52 H22          3.9440    -0.0230     4.4970 h1         1 AWZ      -0.003300
     53 H23         -2.4070    -0.8960     3.0030 h1         1 AWZ       0.000700
     54 H24         -2.4130     0.8730     3.0020 h1         1 AWZ       0.000700
     55 H25         -2.4710    -0.0110     4.5330 h1         1 AWZ       0.000700
     56 H1           5.5810     1.7810    -4.2470 ha         1 AWZ       0.128000
@<TRIPOS>BOND
     1     1     9 ar  
     2     1    23 ar  
     3     1    24 ar  
     4     2     8 2   
     5     2    20 1   
     6     2    56 1   
     7     3     5 1   
     8     3    22 ar  
     9     3    23 ar  
    10     4     7 1   
    11     4     8 1   
    12     4    21 1   
    13     4    32 1   
    14     5    33 1   
    15     5    34 1   
    16     5    35 1   
    17     6     9 ar  
    18     6    21 1   
    19     6    22 ar  
    20     7    36 1   
    21     7    37 1   
    22     7    38 1   
    23     8    19 1   
    24     9    25 ar  
    25    10    11 1   
    26    10    14 1   
    27    10    39 1   
    28    10    40 1   
    29    11    12 1   
    30    11    41 1   
    31    11    42 1   
    32    12    13 1   
    33    12    43 1   
    34    12    44 1   
    35    13    14 1   
    36    13    17 1   
    37    14    15 2   
    38    15    16 1   
    39    16    17 2   
    40    16    45 1   
    41    17    18 1   
    42    18    19 1   
    43    18    20 2   
    44    20    46 1   
    45    21    47 1   
    46    24    29 ar  
    47    24    48 1   
    48    25    26 ar  
    49    25    49 1   
    50    26    27 1   
    51    26    29 ar  
    52    27    28 1   
    53    28    50 1   
    54    28    51 1   
    55    28    52 1   
    56    29    30 1   
    57    30    31 1   
    58    31    53 1   
    59    31    54 1   
    60    31    55 1   
@<TRIPOS>SUBSTRUCTURE
     1 AWZ         1 TEMP              0 ****  ****    0 ROOT
