@<TRIPOS>MOLECULE
AX1
   32    35     1     0     0
SMALL
bcc


@<TRIPOS>ATOM
      1 CAG          0.0000     0.0000     0.0000 ca         1 AX1      -0.077000
      2 CAQ          1.3820     0.0000     0.0000 ca         1 AX1       0.070100
      3 OAM          2.2860     0.0000     1.0230 os         1 AX1      -0.308900
      4 CAH          3.5320     0.4130     0.4350 c3         1 AX1       0.426200
      5 OAL          3.4170    -0.0010    -0.9390 os         1 AX1      -0.292900
      6 CAP          2.0790    -0.0010    -1.2090 ca         1 AX1       0.097100
      7 CAF          1.3860    -0.0020    -2.4110 ca         1 AX1      -0.079000
      8 CAE          0.0080    -0.0030    -2.4180 ca         1 AX1      -0.052000
      9 CAO         -0.6970    -0.0010    -1.2110 ca         1 AX1      -0.091000
     10 CAS         -2.1720    -0.0000    -1.2160 cc         1 AX1      -0.106300
     11 NAK         -2.9720     0.7880    -0.4310 na         1 AX1       0.476900
     12 CAU         -4.2920     0.5390    -0.6860 cc         1 AX1      -0.170900
     13 NAI         -5.4290     1.0430    -0.1860 nc         1 AX1      -0.350100
     14 CAN         -6.6020     0.6260    -0.6080 cd         1 AX1      -0.025200
     15 NAB         -7.7360     1.1750    -0.0640 nz         1 AX1       0.225400
     16 NAJ         -6.7280    -0.3320    -1.5670 ns         1 AX1      -0.000400
     17 CAT         -5.6270    -0.8900    -2.1190 c          1 AX1       0.636100
     18 OAC         -5.7240    -1.7480    -2.9790 o          1 AX1      -0.584500
     19 CAV         -4.3630    -0.4500    -1.6740 cd         1 AX1      -0.179600
     20 CAR         -2.9760    -0.7950    -2.0210 cd         1 AX1       0.075000
     21 CAD         -2.5440    -1.7560    -2.9900 ch         1 AX1       0.223800
     22 NAA         -2.1900    -2.5050    -3.7670 n1         1 AX1      -0.301800
     23 HAG         -0.5410    -0.0230     0.9380 ha         1 AX1       0.109000
     24 HAH          4.3190    -0.2630     0.7450 h2         1 AX1       0.028200
     25 HAHA         3.7330     1.4440     0.7020 h2         1 AX1       0.028200
     26 HAF          1.9290     0.0060    -3.3480 ha         1 AX1       0.130000
     27 HAE         -0.5280     0.0400    -3.3590 ha         1 AX1       0.121000
     28 HNAK        -2.8640     1.5430     0.2180 hn         1 AX1       0.137700
     29 HNAB        -7.4800     1.8750     0.6040 hn         1 AX1       0.215133
     30 HNAA        -8.2860     1.5920    -0.7900 hn         1 AX1       0.215133
     31 HNAJ        -7.6370    -0.6280    -1.8670 hn         1 AX1       0.189500
     32 HAB3        -8.2750     0.4580     0.3780 hn         1 AX1       0.215133
@<TRIPOS>BOND
     1     1     2 ar  
     2     1     9 ar  
     3     1    23 1   
     4     2     3 1   
     5     2     6 ar  
     6     3     4 1   
     7     4     5 1   
     8     4    24 1   
     9     4    25 1   
    10     5     6 1   
    11     6     7 ar  
    12     7     8 ar  
    13     7    26 1   
    14     8     9 ar  
    15     8    27 1   
    16     9    10 1   
    17    10    11 1   
    18    10    20 2   
    19    11    12 1   
    20    11    28 1   
    21    12    13 1   
    22    12    19 2   
    23    13    14 2   
    24    14    15 1   
    25    14    16 1   
    26    15    29 1   
    27    15    30 1   
    28    15    32 1   
    29    16    17 1   
    30    16    31 1   
    31    17    18 2   
    32    17    19 1   
    33    19    20 1   
    34    20    21 1   
    35    21    22 3   
@<TRIPOS>SUBSTRUCTURE
     1 AX1         1 TEMP              0 ****  ****    0 ROOT
