@<TRIPOS>MOLECULE
molecule
   32    35     1     0     0
SMALL
bcc


@<TRIPOS>ATOM
      1 CAG          0.0000     0.0000     0.0000 ca         1 AX1      -0.094000
      2 CAQ          1.3820     0.0000     0.0000 ca         1 AX1       0.058100
      3 OAM          2.2860     0.0000     1.0230 os         1 AX1      -0.318900
      4 CAH          3.5320     0.4130     0.4350 c3         1 AX1       0.323200
      5 OAL          3.4170    -0.0010    -0.9390 os         1 AX1      -0.301900
      6 CAP          2.0790    -0.0010    -1.2090 ca         1 AX1       0.090100
      7 CAF          1.3860    -0.0020    -2.4110 ca         1 AX1      -0.110000
      8 CAE          0.0080    -0.0030    -2.4180 ca         1 AX1      -0.074000
      9 CAO         -0.6970    -0.0010    -1.2110 ca         1 AX1      -0.090000
     10 CAS         -2.1720    -0.0000    -1.2160 cc         1 AX1       0.112700
     11 NAK         -2.9720     0.7880    -0.4310 na         1 AX1      -0.117100
     12 CAU         -4.2920     0.5390    -0.6860 cc         1 AX1       0.105100
     13 NAI         -5.4290     1.0430    -0.1860 nc         1 AX1      -0.563100
     14 CAN         -6.6020     0.6260    -0.6080 cd         1 AX1       0.451800
     15 NAB         -7.7360     1.1750    -0.0640 nz         1 AX1      -0.726600
     16 NAJ         -6.7280    -0.3320    -1.5670 ns         1 AX1      -0.466400
     17 CAT         -5.6270    -0.8900    -2.1190 c          1 AX1       0.726100
     18 OAC         -5.7240    -1.7480    -2.9790 o          1 AX1      -0.543500
     19 CAV         -4.3630    -0.4500    -1.6740 cd         1 AX1      -0.167600
     20 CAR         -2.9760    -0.7950    -2.0210 cd         1 AX1      -0.008000
     21 CAD         -2.5440    -1.7560    -2.9900 ch         1 AX1       0.245800
     22 NAA         -2.1900    -2.5050    -3.7670 n1         1 AX1      -0.291800
     23 HAG         -0.5410    -0.0230     0.9380 ha         1 AX1       0.145000
     24 HAH          4.3190    -0.2630     0.7450 h2         1 AX1       0.088200
     25 HAHA         3.7330     1.4440     0.7020 h2         1 AX1       0.088200
     26 HAF          1.9290     0.0060    -3.3480 ha         1 AX1       0.166000
     27 HAE         -0.5280     0.0400    -3.3590 ha         1 AX1       0.155000
     28 HNAK        -2.8640     1.5430     0.2180 hn         1 AX1       0.334700
     29 HNAB        -7.4800     1.8750     0.6040 hn         1 AX1       0.477133
     30 HNAA        -8.2860     1.5920    -0.7900 hn         1 AX1       0.477133
     31 HNAJ        -7.6370    -0.6280    -1.8670 hn         1 AX1       0.348500
     32 HAB3        -8.2750     0.4580     0.3780 hn         1 AX1       0.477133
@<TRIPOS>BOND
     1     1     2 ar
     2     1     9 ar
     3     2     3 1
     4     2     6 ar
     5     3     4 1
     6     4     5 1
     7     5     6 1
     8     6     7 ar
     9     7     8 ar
    10     8     9 ar
    11     9    10 1
    12    10    11 1
    13    10    20 2
    14    11    12 1
    15    12    13 1
    16    12    19 2
    17    13    14 2
    18    14    15 1
    19    14    16 1
    20    16    17 1
    21    17    18 2
    22    17    19 1
    23    19    20 1
    24    20    21 1
    25    21    22 3
    26     1    23 1
    27     4    24 1
    28     4    25 1
    29     7    26 1
    30     8    27 1
    31    11    28 1
    32    15    29 1
    33    15    30 1
    34    16    31 1
    35    32    15 1
@<TRIPOS>SUBSTRUCTURE
     1 AX1         1 TEMP              0 ****  ****    0 ROOT
