@<TRIPOS>MOLECULE
AX2
   15    15     1     0     0
SMALL
bcc


@<TRIPOS>ATOM
      1 C2           0.0000     0.0000     0.0000 ca         1 AX2       0.793233
      2 C4           1.9940     0.0000     1.1510 ca         1 AX2       0.793233
      3 C6          -0.0000     0.0060     2.3020 ca         1 AX2       0.793233
      4 N7          -0.6900    -0.0000    -1.1950 nv         1 AX2      -0.536167
      5 N8          -0.6910     0.0060     3.4980 nv         1 AX2      -0.536167
      6 N5           1.3290     0.0000     2.3020 nb         1 AX2      -0.811000
      7 N9           3.3740    -0.0060     1.1520 nv         1 AX2      -0.536167
      8 N3           1.3290     0.0000     0.0000 nb         1 AX2      -0.811000
      9 N1          -0.6650     0.0060     1.1510 nb         1 AX2      -0.811000
     10 HN7         -0.9420    -0.8670    -1.6280 hn         1 AX2       0.276800
     11 HN7A        -0.9380     0.8670    -1.6300 hn         1 AX2       0.276800
     12 HN8         -0.1900     0.0050     4.3650 hn         1 AX2       0.276800
     13 HN8A        -1.6920     0.0090     3.4980 hn         1 AX2       0.276800
     14 HN9          3.8750    -0.0080     0.2850 hn         1 AX2       0.276800
     15 HN9A         3.8740    -0.0080     2.0190 hn         1 AX2       0.276800
@<TRIPOS>BOND
     1     1     4 1   
     2     1     8 ar  
     3     1     9 ar  
     4     2     6 ar  
     5     2     7 1   
     6     2     8 ar  
     7     3     5 1   
     8     3     6 ar  
     9     3     9 ar  
    10     4    10 1   
    11     4    11 1   
    12     5    12 1   
    13     5    13 1   
    14     7    14 1   
    15     7    15 1   
@<TRIPOS>SUBSTRUCTURE
     1 AX2         1 TEMP              0 ****  ****    0 ROOT
