@<TRIPOS>MOLECULE
molecule
   22    23     1     0     0
SMALL
bcc


@<TRIPOS>ATOM
      1 CAC          0.0000     0.0000     0.0000 cx         1 AX3      -0.159400
      2 CAD          1.5300     0.0000     0.0000 cx         1 AX3      -0.159400
      3 CAL          0.7640     0.0000     1.3250 cx         1 AX3       0.190500
      4 NAH          0.7640    -1.2400     2.1060 nu         1 AX3      -0.857900
      5 CAK          0.9560    -1.1950     3.4710 ca         1 AX3       0.995900
      6 NAG          0.9570    -2.3210     4.1800 nb         1 AX3      -0.884500
      7 NAF          1.1480    -0.0290     4.0780 nb         1 AX3      -0.884500
      8 CAI          1.3340     0.0150     5.3940 ca         1 AX3       1.009900
      9 NAA          1.5320     1.2270     6.0230 nv         1 AX3      -1.040500
     10 NAE          1.3270    -1.1100     6.1020 nb         1 AX3      -0.875000
     11 CAJ          1.1420    -2.2770     5.4960 ca         1 AX3       1.009900
     12 NAB          1.1410    -3.4450     6.2310 nv         1 AX3      -1.040500
     13 HAC         -0.4670     0.9390    -0.2700 hc         1 AX3       0.078450
     14 HACA        -0.4670    -0.9390    -0.2700 hc         1 AX3       0.078450
     15 HAD          1.9970     0.9390    -0.2700 hc         1 AX3       0.078450
     16 HADA         1.9970    -0.9390    -0.2700 hc         1 AX3       0.078450
     17 HAL          0.7640     0.9480     1.8480 h1         1 AX3       0.124700
     18 HNAH         0.5910    -2.1160     1.6530 hn         1 AX3       0.462800
     19 HNAA         0.8890     1.9790     5.8760 hn         1 AX3       0.448300
     20 HNAB         2.3080     1.3470     6.6450 hn         1 AX3       0.448300
     21 HNAC         0.3360    -3.6970     6.7700 hn         1 AX3       0.448300
     22 HNAD         1.9560    -4.0270     6.2470 hn         1 AX3       0.448300
@<TRIPOS>BOND
     1     1     2 1
     2     1     3 1
     3     2     3 1
     4     3     4 1
     5     4     5 1
     6     5     6 ar
     7     5     7 ar
     8     6    11 ar
     9     7     8 ar
    10     8     9 1
    11     8    10 ar
    12    10    11 ar
    13    11    12 1
    14     1    13 1
    15     1    14 1
    16     2    15 1
    17     2    16 1
    18     3    17 1
    19     4    18 1
    20     9    19 1
    21     9    20 1
    22    12    21 1
    23    12    22 1
@<TRIPOS>SUBSTRUCTURE
     1 AX3         1 TEMP              0 ****  ****    0 ROOT
