@<TRIPOS>MOLECULE
molecule
   28    29     1     0     0
SMALL
bcc


@<TRIPOS>ATOM
      1 C4           0.0000     0.0000     0.0000 ca         1 AX4       0.632600
      2 C5           1.3910     0.0000     0.0000 ca         1 AX4      -0.490600
      3 C6           2.0540     0.0000     1.2240 ca         1 AX4       0.776200
      4 N1           1.3410    -0.0010     2.3470 nb         1 AX4      -0.879000
      5 N3          -0.6480    -0.0010     1.1640 nb         1 AX4      -0.844000
      6 CAF         -3.3630     0.9450    -0.8020 ca         1 AX4      -0.062500
      7 CAD         -4.6730     0.7970    -0.3930 ca         1 AX4      -0.145500
      8 CAL         -5.1930    -0.4660    -0.1750 ca         1 AX4      -0.054300
      9 CAA         -6.6230    -0.6240     0.2720 c3         1 AX4      -0.051800
     10 CAE         -4.4020    -1.5850    -0.3670 ca         1 AX4      -0.145500
     11 CAG         -3.0920    -1.4440    -0.7770 ca         1 AX4      -0.062500
     12 CAO         -2.5660    -0.1760    -0.9960 ca         1 AX4      -0.005100
     13 SAK         -0.8940     0.0080    -1.5190 ss         1 AX4      -0.270200
     14 C2           0.0160    -0.0020     2.3090 ca         1 AX4       0.988900
     15 NAC         -0.6910    -0.0030     3.4990 nv         1 AX4      -0.991500
     16 NAB          3.4400    -0.0000     1.2720 nv         1 AX4      -1.003500
     17 H5           1.9450     0.0010    -0.9310 ha         1 AX4       0.145000
     18 HAF         -2.9560     1.9340    -0.9720 ha         1 AX4       0.141000
     19 HAD         -5.2940     1.6710    -0.2420 ha         1 AX4       0.133000
     20 HAA         -6.9240    -1.6590     0.1610 hc         1 AX4       0.045033
     21 HAAA        -6.7100    -0.3320     1.3120 hc         1 AX4       0.045033
     22 HAAB        -7.2630     0.0060    -0.3340 hc         1 AX4       0.045033
     23 HAE         -4.8120    -2.5730    -0.1960 ha         1 AX4       0.133000
     24 HAG         -2.4730    -2.3210    -0.9270 ha         1 AX4       0.141000
     25 HNAC        -0.2020    -0.0050     4.3720 hn         1 AX4       0.448800
     26 HNAA        -1.6920     0.0120     3.4860 hn         1 AX4       0.448800
     27 HNAB         3.9700     0.0000     0.4230 hn         1 AX4       0.442300
     28 HNAD         3.9100    -0.0000     2.1550 hn         1 AX4       0.442300
@<TRIPOS>BOND
     1     1     2 ar
     2     1     5 ar
     3     1    13 1
     4     2     3 ar
     5     3     4 ar
     6     3    16 1
     7     4    14 ar
     8     5    14 ar
     9     6     7 ar
    10     6    12 ar
    11     7     8 ar
    12     8     9 1
    13     8    10 ar
    14    10    11 ar
    15    11    12 ar
    16    12    13 1
    17    14    15 1
    18     2    17 1
    19     6    18 1
    20     7    19 1
    21     9    20 1
    22     9    21 1
    23     9    22 1
    24    10    23 1
    25    11    24 1
    26    15    25 1
    27    15    26 1
    28    16    27 1
    29    16    28 1
@<TRIPOS>SUBSTRUCTURE
     1 AX4         1 TEMP              0 ****  ****    0 ROOT
