@<TRIPOS>MOLECULE
molecule
   28    29     1     0     0
SMALL
bcc


@<TRIPOS>ATOM
      1 C4           0.0000     0.0000     0.0000 ca         1 AX5       0.608600
      2 C5           1.3920     0.0000     0.0000 ca         1 AX5      -0.446600
      3 C6           2.0550     0.0000     1.2230 ca         1 AX5       0.748200
      4 N1           1.3410     0.0000     2.3470 nb         1 AX5      -0.829000
      5 N3          -0.6480    -0.0000     1.1640 nb         1 AX5      -0.811000
      6 CAF         -4.0010    -1.1850    -2.5760 ca         1 AX5      -0.112000
      7 CAD         -4.8880    -1.1800    -3.6360 ca         1 AX5      -0.129000
      8 CAC         -5.3320     0.0190    -4.1600 ca         1 AX5      -0.123000
      9 CAE         -4.8890     1.2140    -3.6240 ca         1 AX5      -0.129000
     10 CAG         -4.0010     1.2090    -2.5660 ca         1 AX5      -0.112000
     11 CAN         -3.5570     0.0100    -2.0410 ca         1 AX5      -0.086300
     12 CAI         -2.5890     0.0040    -0.8860 c3         1 AX5       0.055000
     13 SAL         -0.8940     0.0070    -1.5180 ss         1 AX5      -0.305400
     14 C2           0.0160     0.0010     2.3100 ca         1 AX5       0.981900
     15 NAB         -0.6910     0.0010     3.4990 nv         1 AX5      -1.061500
     16 NAA          3.4410    -0.0010     1.2710 nv         1 AX5      -1.003500
     17 H5           1.9460     0.0000    -0.9310 ha         1 AX5       0.148000
     18 HAD         -5.2360    -2.1160    -4.0560 ha         1 AX5       0.131000
     19 HAC         -6.0280     0.0230    -4.9900 ha         1 AX5       0.130000
     20 HAE         -5.2370     2.1540    -4.0350 ha         1 AX5       0.131000
     21 HAG         -3.6530     2.1450    -2.1460 ha         1 AX5       0.135000
     22 HAI         -2.7490     0.8860    -0.2770 h1         1 AX5       0.083700
     23 HAIA        -2.7490    -0.8830    -0.2850 h1         1 AX5       0.083700
     24 HNAB        -0.9380    -0.8660     3.9340 hn         1 AX5       0.444800
     25 HNAA        -0.9360     0.8680     3.9360 hn         1 AX5       0.444800
     26 HNAC         3.9110    -0.0010     2.1550 hn         1 AX5       0.443300
     27 HNAD         3.9710    -0.0010     0.4220 hn         1 AX5       0.443300
     28 HAF         -3.6530    -2.1250    -2.1660 ha         1 AX5       0.135000
@<TRIPOS>BOND
     1     1     2 ar
     2     1     5 ar
     3     1    13 1
     4     2     3 ar
     5     3     4 ar
     6     3    16 1
     7     4    14 ar
     8     5    14 ar
     9     6     7 ar
    10     6    11 ar
    11     7     8 ar
    12     8     9 ar
    13     9    10 ar
    14    10    11 ar
    15    11    12 1
    16    12    13 1
    17    14    15 1
    18     2    17 1
    19     6    28 1
    20     7    18 1
    21     8    19 1
    22     9    20 1
    23    10    21 1
    24    12    22 1
    25    12    23 1
    26    15    24 1
    27    15    25 1
    28    16    26 1
    29    16    27 1
@<TRIPOS>SUBSTRUCTURE
     1 AX5         1 TEMP              0 ****  ****    0 ROOT
