@<TRIPOS>MOLECULE
AX5
   28    29     1     0     0
SMALL
bcc


@<TRIPOS>ATOM
      1 C4           0.0000     0.0000     0.0000 ca         1 AX5       0.599600
      2 C5           1.3920     0.0000     0.0000 ca         1 AX5      -0.409600
      3 C6           2.0550     0.0000     1.2230 ca         1 AX5       0.547200
      4 N1           1.3410     0.0000     2.3470 nb         1 AX5      -0.713000
      5 N3          -0.6480    -0.0000     1.1640 nb         1 AX5      -0.709000
      6 CAF         -4.0010    -1.1850    -2.5760 ca         1 AX5      -0.084000
      7 CAD         -4.8880    -1.1800    -3.6360 ca         1 AX5      -0.101000
      8 CAC         -5.3320     0.0190    -4.1600 ca         1 AX5      -0.096000
      9 CAE         -4.8890     1.2140    -3.6240 ca         1 AX5      -0.101000
     10 CAG         -4.0010     1.2090    -2.5660 ca         1 AX5      -0.084000
     11 CAN         -3.5570     0.0100    -2.0410 ca         1 AX5      -0.088300
     12 CAI         -2.5890     0.0040    -0.8860 c3         1 AX5       0.154000
     13 SAL         -0.8940     0.0070    -1.5180 ss         1 AX5      -0.414400
     14 C2           0.0160     0.0010     2.3100 ca         1 AX5       0.773900
     15 NAB         -0.6910     0.0010     3.4990 nv         1 AX5      -0.641500
     16 NAA          3.4410    -0.0010     1.2710 nv         1 AX5      -0.510500
     17 H5           1.9460     0.0000    -0.9310 ha         1 AX5       0.137000
     18 HAD         -5.2360    -2.1160    -4.0560 ha         1 AX5       0.103000
     19 HAC         -6.0280     0.0230    -4.9900 ha         1 AX5       0.102000
     20 HAE         -5.2370     2.1540    -4.0350 ha         1 AX5       0.103000
     21 HAG         -3.6530     2.1450    -2.1460 ha         1 AX5       0.109000
     22 HAI         -2.7490     0.8860    -0.2770 h1         1 AX5       0.053700
     23 HAIA        -2.7490    -0.8830    -0.2850 h1         1 AX5       0.053700
     24 HNAB        -0.9380    -0.8660     3.9340 hn         1 AX5       0.279800
     25 HNAA        -0.9360     0.8680     3.9360 hn         1 AX5       0.279800
     26 HNAC         3.9110    -0.0010     2.1550 hn         1 AX5       0.273300
     27 HNAD         3.9710    -0.0010     0.4220 hn         1 AX5       0.273300
     28 HAF         -3.6530    -2.1250    -2.1660 ha         1 AX5       0.109000
@<TRIPOS>BOND
     1     1     2 ar  
     2     1     5 ar  
     3     1    13 1   
     4     2     3 ar  
     5     2    17 1   
     6     3     4 ar  
     7     3    16 1   
     8     4    14 ar  
     9     5    14 ar  
    10     6     7 ar  
    11     6    11 ar  
    12     6    28 1   
    13     7     8 ar  
    14     7    18 1   
    15     8     9 ar  
    16     8    19 1   
    17     9    10 ar  
    18     9    20 1   
    19    10    11 ar  
    20    10    21 1   
    21    11    12 1   
    22    12    13 1   
    23    12    22 1   
    24    12    23 1   
    25    14    15 1   
    26    15    24 1   
    27    15    25 1   
    28    16    26 1   
    29    16    27 1   
@<TRIPOS>SUBSTRUCTURE
     1 AX5         1 TEMP              0 ****  ****    0 ROOT
