@<TRIPOS>MOLECULE
molecule
   32    33     1     0     0
SMALL
bcc


@<TRIPOS>ATOM
      1 C4           0.0000     0.0000     0.0000 ca         1 AX6       0.609600
      2 C5           1.3930     0.0000     0.0000 ca         1 AX6      -0.446600
      3 C6           2.0540     0.0000     1.2240 ca         1 AX6       0.747200
      4 N1           1.3390    -0.0000     2.3480 nb         1 AX6      -0.829000
      5 N3          -0.6480    -0.0000     1.1640 nb         1 AX6      -0.811000
      6 CAA         -6.6200     1.3000    -5.6980 c3         1 AX6       0.128700
      7 CAP         -5.3310     0.0200    -4.1650 ca         1 AX6       0.147100
      8 CAG         -4.8840    -1.1840    -3.6380 ca         1 AX6      -0.191500
      9 CAE         -3.9970    -1.1870    -2.5790 ca         1 AX6      -0.074000
     10 CAF         -4.8810     1.2180    -3.6300 ca         1 AX6      -0.191500
     11 CAD         -3.9940     1.2100    -2.5700 ca         1 AX6      -0.074000
     12 CAO         -3.5550     0.0100    -2.0430 ca         1 AX6      -0.127300
     13 CAI         -2.5880     0.0030    -0.8870 c3         1 AX6       0.062000
     14 SAM         -0.8920     0.0070    -1.5190 ss         1 AX6      -0.310400
     15 C2           0.0150    -0.0010     2.3100 ca         1 AX6       0.981900
     16 NAC         -0.6920    -0.0020     3.4990 nv         1 AX6      -1.061500
     17 NAB          3.4400     0.0010     1.2740 nv         1 AX6      -1.003500
     18 H5           1.9470     0.0000    -0.9310 ha         1 AX6       0.148000
     19 HAA         -7.3110     1.1610    -6.5200 h1         1 AX6       0.042033
     20 HAAA        -5.7650     1.8720    -6.0380 h1         1 AX6       0.042033
     21 HAAB        -7.1150     1.8320    -4.8950 h1         1 AX6       0.042033
     22 HAG         -5.2310    -2.1200    -4.0580 ha         1 AX6       0.140500
     23 HAE         -3.6500    -2.1260    -2.1660 ha         1 AX6       0.138000
     24 HAF         -5.2250     2.1590    -4.0420 ha         1 AX6       0.140500
     25 HAD         -3.6440     2.1450    -2.1500 ha         1 AX6       0.138000
     26 HAI         -2.7480     0.8840    -0.2780 h1         1 AX6       0.082700
     27 HAIA        -2.7480    -0.8850    -0.2880 h1         1 AX6       0.082700
     28 HNAC        -0.9390     0.8640     3.9350 hn         1 AX6       0.443800
     29 HNAA        -0.9380    -0.8690     3.9340 hn         1 AX6       0.443800
     30 HNAB         3.9090     0.0010     2.1580 hn         1 AX6       0.443300
     31 HNAD         3.9710     0.0010     0.4260 hn         1 AX6       0.443300
     32 OAL         -6.2020     0.0240    -5.2070 os         1 AX6      -0.327900
@<TRIPOS>BOND
     1     1     2 ar
     2     1     5 ar
     3     1    14 1
     4     2     3 ar
     5     3     4 ar
     6     3    17 1
     7     4    15 ar
     8     5    15 ar
     9     6    32 1
    10    32     7 1
    11     7     8 ar
    12     7    10 ar
    13     8     9 ar
    14     9    12 ar
    15    10    11 ar
    16    11    12 ar
    17    12    13 1
    18    13    14 1
    19    15    16 1
    20     2    18 1
    21     6    19 1
    22     6    20 1
    23     6    21 1
    24     8    22 1
    25     9    23 1
    26    10    24 1
    27    11    25 1
    28    13    26 1
    29    13    27 1
    30    16    28 1
    31    16    29 1
    32    17    30 1
    33    17    31 1
@<TRIPOS>SUBSTRUCTURE
     1 AX6         1 TEMP              0 ****  ****    0 ROOT
