@<TRIPOS>MOLECULE
AX6
   32    33     1     0     0
SMALL
bcc


@<TRIPOS>ATOM
      1 C4           0.0000     0.0000     0.0000 ca         1 AX6       0.599600
      2 C5           1.3930     0.0000     0.0000 ca         1 AX6      -0.409600
      3 C6           2.0540     0.0000     1.2240 ca         1 AX6       0.546200
      4 N1           1.3390    -0.0000     2.3480 nb         1 AX6      -0.713000
      5 N3          -0.6480    -0.0000     1.1640 nb         1 AX6      -0.708000
      6 CAA         -6.6200     1.3000    -5.6980 c3         1 AX6       0.243700
      7 CAP         -5.3310     0.0200    -4.1650 ca         1 AX6       0.157100
      8 CAG         -4.8840    -1.1840    -3.6380 ca         1 AX6      -0.178000
      9 CAE         -3.9970    -1.1870    -2.5790 ca         1 AX6      -0.040000
     10 CAF         -4.8810     1.2180    -3.6300 ca         1 AX6      -0.178000
     11 CAD         -3.9940     1.2100    -2.5700 ca         1 AX6      -0.040000
     12 CAO         -3.5550     0.0100    -2.0430 ca         1 AX6      -0.134300
     13 CAI         -2.5880     0.0030    -0.8870 c3         1 AX6       0.163000
     14 SAM         -0.8920     0.0070    -1.5190 ss         1 AX6      -0.418400
     15 C2           0.0150    -0.0010     2.3100 ca         1 AX6       0.773900
     16 NAC         -0.6920    -0.0020     3.4990 nv         1 AX6      -0.641500
     17 NAB          3.4400     0.0010     1.2740 nv         1 AX6      -0.510500
     18 H5           1.9470     0.0000    -0.9310 ha         1 AX6       0.137000
     19 HAA         -7.3110     1.1610    -6.5200 h1         1 AX6      -0.002300
     20 HAAA        -5.7650     1.8720    -6.0380 h1         1 AX6      -0.002300
     21 HAAB        -7.1150     1.8320    -4.8950 h1         1 AX6      -0.002300
     22 HAG         -5.2310    -2.1200    -4.0580 ha         1 AX6       0.119000
     23 HAE         -3.6500    -2.1260    -2.1660 ha         1 AX6       0.109000
     24 HAF         -5.2250     2.1590    -4.0420 ha         1 AX6       0.119000
     25 HAD         -3.6440     2.1450    -2.1500 ha         1 AX6       0.109000
     26 HAI         -2.7480     0.8840    -0.2780 h1         1 AX6       0.052200
     27 HAIA        -2.7480    -0.8850    -0.2880 h1         1 AX6       0.052200
     28 HNAC        -0.9390     0.8640     3.9350 hn         1 AX6       0.279800
     29 HNAA        -0.9380    -0.8690     3.9340 hn         1 AX6       0.279800
     30 HNAB         3.9090     0.0010     2.1580 hn         1 AX6       0.273300
     31 HNAD         3.9710     0.0010     0.4260 hn         1 AX6       0.273300
     32 OAL         -6.2020     0.0240    -5.2070 os         1 AX6      -0.307900
@<TRIPOS>BOND
     1     1     2 ar  
     2     1     5 ar  
     3     1    14 1   
     4     2     3 ar  
     5     2    18 1   
     6     3     4 ar  
     7     3    17 1   
     8     4    15 ar  
     9     5    15 ar  
    10     6    19 1   
    11     6    20 1   
    12     6    21 1   
    13     6    32 1   
    14     7     8 ar  
    15     7    10 ar  
    16     7    32 1   
    17     8     9 ar  
    18     8    22 1   
    19     9    12 ar  
    20     9    23 1   
    21    10    11 ar  
    22    10    24 1   
    23    11    12 ar  
    24    11    25 1   
    25    12    13 1   
    26    13    14 1   
    27    13    26 1   
    28    13    27 1   
    29    15    16 1   
    30    16    28 1   
    31    16    29 1   
    32    17    30 1   
    33    17    31 1   
@<TRIPOS>SUBSTRUCTURE
     1 AX6         1 TEMP              0 ****  ****    0 ROOT
