@<TRIPOS>MOLECULE
AX7
   17    18     1     0     0
SMALL
bcc


@<TRIPOS>ATOM
      1 NAF          0.0000     0.0000     0.0000 na         1 AX7       0.240700
      2 CAI          1.3860     0.0000     0.0000 ca         1 AX7      -0.266200
      3 CAD          2.3470     0.0000     0.9990 ca         1 AX7      -0.090000
      4 CAB          3.6860    -0.0000     0.6650 ca         1 AX7      -0.091000
      5 CAC          4.0770    -0.0000    -0.6660 ca         1 AX7      -0.121000
      6 CAE          3.1350    -0.0000    -1.6710 ca         1 AX7      -0.039000
      7 CAJ          1.7770    -0.0000    -1.3490 ca         1 AX7       0.068400
      8 NAG          0.6400    -0.0000    -2.0950 nc         1 AX7      -0.526100
      9 CAH         -0.4050     0.0000    -1.3040 cd         1 AX7       0.295700
     10 NAA         -1.7180     0.0000    -1.7260 nv         1 AX7      -0.559800
     11 HNAF        -0.5940     0.0000     0.8060 hn         1 AX7       0.125700
     12 HAD          2.0480     0.0000     2.0400 ha         1 AX7       0.098000
     13 HAB          4.4360    -0.0000     1.4460 ha         1 AX7       0.102000
     14 HAC          5.1300    -0.0000    -0.9170 ha         1 AX7       0.104000
     15 HAE          3.4470    -0.0000    -2.7080 ha         1 AX7       0.109000
     16 HNAA        -2.1900    -0.8670    -1.8920 hn         1 AX7       0.274800
     17 HNAB        -2.1900     0.8670    -1.8910 hn         1 AX7       0.274800
@<TRIPOS>BOND
     1     1     2 1   
     2     1     9 1   
     3     1    11 1   
     4     2     3 ar  
     5     2     7 ar  
     6     3     4 ar  
     7     3    12 1   
     8     4     5 ar  
     9     4    13 1   
    10     5     6 ar  
    11     5    14 1   
    12     6     7 ar  
    13     6    15 1   
    14     7     8 1   
    15     8     9 2   
    16     9    10 1   
    17    10    16 1   
    18    10    17 1   
@<TRIPOS>SUBSTRUCTURE
     1 AX7         1 TEMP              0 ****  ****    0 ROOT
