@<TRIPOS>MOLECULE
molecule
   17    18     1     0     0
SMALL
bcc


@<TRIPOS>ATOM
      1 NAF          0.0000     0.0000     0.0000 na         1 AX7      -0.281300
      2 CAI          1.3860     0.0000     0.0000 ca         1 AX7      -0.090200
      3 CAD          2.3470     0.0000     0.9990 ca         1 AX7      -0.130000
      4 CAB          3.6860    -0.0000     0.6650 ca         1 AX7      -0.116000
      5 CAC          4.0770    -0.0000    -0.6660 ca         1 AX7      -0.147000
      6 CAE          3.1350    -0.0000    -1.6710 ca         1 AX7      -0.073000
      7 CAJ          1.7770    -0.0000    -1.3490 ca         1 AX7       0.097400
      8 NAG          0.6400    -0.0000    -2.0950 nc         1 AX7      -0.609100
      9 CAH         -0.4050     0.0000    -1.3040 cd         1 AX7       0.638700
     10 NAA         -1.7180     0.0000    -1.7260 nv         1 AX7      -1.008800
     11 HNAF        -0.5940     0.0000     0.8060 hn         1 AX7       0.298700
     12 HAD          2.0480     0.0000     2.0400 ha         1 AX7       0.125000
     13 HAB          4.4360    -0.0000     1.4460 ha         1 AX7       0.131000
     14 HAC          5.1300    -0.0000    -0.9170 ha         1 AX7       0.132000
     15 HAE          3.4470    -0.0000    -2.7080 ha         1 AX7       0.142000
     16 HNAA        -2.1900    -0.8670    -1.8920 hn         1 AX7       0.444800
     17 HNAB        -2.1900     0.8670    -1.8910 hn         1 AX7       0.444800
@<TRIPOS>BOND
     1     1     2 1
     2     1     9 1
     3     2     3 ar
     4     2     7 ar
     5     3     4 ar
     6     4     5 ar
     7     5     6 ar
     8     6     7 ar
     9     7     8 1
    10     8     9 2
    11     9    10 1
    12     1    11 1
    13     3    12 1
    14     4    13 1
    15     5    14 1
    16     6    15 1
    17    10    16 1
    18    10    17 1
@<TRIPOS>SUBSTRUCTURE
     1 AX7         1 TEMP              0 ****  ****    0 ROOT
