@<TRIPOS>MOLECULE
molecule
   30    32     1     0     0
SMALL
bcc


@<TRIPOS>ATOM
      1 CAJ          0.0000     0.0000     0.0000 ca         1 AX8      -0.097000
      2 CAO          1.3830     0.0000     0.0000 ca         1 AX8       0.029400
      3 ClAC         2.2510     0.0010    -1.5030 cl         1 AX8      -0.082400
      4 CAN          2.0750     0.0000     1.2000 ca         1 AX8       0.039400
      5 ClAB         3.8110     0.0000     1.2010 cl         1 AX8      -0.079400
      6 CAG          1.3810    -0.0010     2.3960 ca         1 AX8      -0.112000
      7 CAF         -0.0010    -0.0010     2.3950 ca         1 AX8      -0.096000
      8 CAM         -0.6910    -0.0010     1.1970 ca         1 AX8      -0.110300
      9 CAK         -2.1990    -0.0010     1.1970 c3         1 AX8       0.104600
     10 NAS         -2.6870    -1.3830     1.1960 na         1 AX8      -0.186300
     11 CAR         -2.9610    -2.1570     2.3120 ca         1 AX8      -0.095200
     12 CAI         -2.8830    -1.9370     3.6770 ca         1 AX8      -0.125000
     13 CAE         -3.2370    -2.9400     4.5560 ca         1 AX8      -0.127000
     14 CAD         -3.6720    -4.1680     4.0820 ca         1 AX8      -0.139000
     15 CAH         -3.7550    -4.4050     2.7270 ca         1 AX8      -0.084000
     16 CAQ         -3.4000    -3.4000     1.8250 ca         1 AX8       0.126400
     17 NAL         -3.3750    -3.3290     0.4680 nc         1 AX8      -0.656100
     18 CAP         -2.9620    -2.1430     0.0960 cd         1 AX8       0.672700
     19 NAA         -2.8220    -1.7260    -1.2110 nv         1 AX8      -0.975800
     20 HAJ         -0.5410     0.0000    -0.9380 ha         1 AX8       0.145000
     21 HAG          1.9210    -0.0010     3.3350 ha         1 AX8       0.154000
     22 HAF         -0.5440    -0.0020     3.3330 ha         1 AX8       0.144000
     23 HAK         -2.5600     0.5100     0.3130 h1         1 AX8       0.065700
     24 HAKA        -2.5600     0.5090     2.0820 h1         1 AX8       0.065700
     25 HAI         -2.5440    -0.9800     4.0550 ha         1 AX8       0.118000
     26 HAE         -3.1770    -2.7670     5.6240 ha         1 AX8       0.130000
     27 HAD         -3.9470    -4.9480     4.7810 ha         1 AX8       0.132000
     28 HAH         -4.0960    -5.3670     2.3630 ha         1 AX8       0.142000
     29 HNAA        -2.8680    -0.7510    -1.4320 hn         1 AX8       0.448800
     30 HNAB        -2.6340    -2.3940    -1.9310 hn         1 AX8       0.448800
@<TRIPOS>BOND
     1     1     2 ar
     2     1     8 ar
     3     2     3 1
     4     2     4 ar
     5     4     5 1
     6     4     6 ar
     7     6     7 ar
     8     7     8 ar
     9     8     9 1
    10     9    10 1
    11    10    11 1
    12    10    18 1
    13    11    12 ar
    14    11    16 ar
    15    12    13 ar
    16    13    14 ar
    17    14    15 ar
    18    15    16 ar
    19    16    17 1
    20    17    18 2
    21    18    19 1
    22     1    20 1
    23     6    21 1
    24     7    22 1
    25     9    23 1
    26     9    24 1
    27    12    25 1
    28    13    26 1
    29    14    27 1
    30    15    28 1
    31    19    29 1
    32    19    30 1
@<TRIPOS>SUBSTRUCTURE
     1 AX8         1 TEMP              0 ****  ****    0 ROOT
