@<TRIPOS>MOLECULE
AX8
   30    32     1     0     0
SMALL
bcc


@<TRIPOS>ATOM
      1 CAJ          0.0000     0.0000     0.0000 ca         1 AX8      -0.076000
      2 CAO          1.3830     0.0000     0.0000 ca         1 AX8      -0.040600
      3 ClAC         2.2510     0.0010    -1.5030 cl         1 AX8       0.003600
      4 CAN          2.0750     0.0000     1.2000 ca         1 AX8      -0.032600
      5 ClAB         3.8110     0.0000     1.2010 cl         1 AX8       0.005600
      6 CAG          1.3810    -0.0010     2.3960 ca         1 AX8      -0.085000
      7 CAF         -0.0010    -0.0010     2.3950 ca         1 AX8      -0.068000
      8 CAM         -0.6910    -0.0010     1.1970 ca         1 AX8      -0.122300
      9 CAK         -2.1990    -0.0010     1.1970 c3         1 AX8       0.036600
     10 NAS         -2.6870    -1.3830     1.1960 na         1 AX8       0.259700
     11 CAR         -2.9610    -2.1570     2.3120 ca         1 AX8      -0.258200
     12 CAI         -2.8830    -1.9370     3.6770 ca         1 AX8      -0.089000
     13 CAE         -3.2370    -2.9400     4.5560 ca         1 AX8      -0.105000
     14 CAD         -3.6720    -4.1680     4.0820 ca         1 AX8      -0.112000
     15 CAH         -3.7550    -4.4050     2.7270 ca         1 AX8      -0.055000
     16 CAQ         -3.4000    -3.4000     1.8250 ca         1 AX8       0.102400
     17 NAL         -3.3750    -3.3290     0.4680 nc         1 AX8      -0.589100
     18 CAP         -2.9620    -2.1430     0.0960 cd         1 AX8       0.340700
     19 NAA         -2.8220    -1.7260    -1.2110 nv         1 AX8      -0.498800
     20 HAJ         -0.5410     0.0000    -0.9380 ha         1 AX8       0.116000
     21 HAG          1.9210    -0.0010     3.3350 ha         1 AX8       0.121000
     22 HAF         -0.5440    -0.0020     3.3330 ha         1 AX8       0.115000
     23 HAK         -2.5600     0.5100     0.3130 h1         1 AX8       0.035200
     24 HAKA        -2.5600     0.5090     2.0820 h1         1 AX8       0.035200
     25 HAI         -2.5440    -0.9800     4.0550 ha         1 AX8       0.095000
     26 HAE         -3.1770    -2.7670     5.6240 ha         1 AX8       0.101000
     27 HAD         -3.9470    -4.9480     4.7810 ha         1 AX8       0.102000
     28 HAH         -4.0960    -5.3670     2.3630 ha         1 AX8       0.110000
     29 HNAA        -2.8680    -0.7510    -1.4320 hn         1 AX8       0.274800
     30 HNAB        -2.6340    -2.3940    -1.9310 hn         1 AX8       0.274800
@<TRIPOS>BOND
     1     1     2 ar  
     2     1     8 ar  
     3     1    20 1   
     4     2     3 1   
     5     2     4 ar  
     6     4     5 1   
     7     4     6 ar  
     8     6     7 ar  
     9     6    21 1   
    10     7     8 ar  
    11     7    22 1   
    12     8     9 1   
    13     9    10 1   
    14     9    23 1   
    15     9    24 1   
    16    10    11 1   
    17    10    18 1   
    18    11    12 ar  
    19    11    16 ar  
    20    12    13 ar  
    21    12    25 1   
    22    13    14 ar  
    23    13    26 1   
    24    14    15 ar  
    25    14    27 1   
    26    15    16 ar  
    27    15    28 1   
    28    16    17 1   
    29    17    18 2   
    30    18    19 1   
    31    19    29 1   
    32    19    30 1   
@<TRIPOS>SUBSTRUCTURE
     1 AX8         1 TEMP              0 ****  ****    0 ROOT
