@<TRIPOS>MOLECULE
AXA
   56    60     1     0     0
SMALL
bcc


@<TRIPOS>ATOM
      1 CAH         0.1580    0.0340    0.0860 ca        1 AXA     -0.134000
      2 CAY         1.5560   -0.0820    0.1530 ca        1 AXA      0.039600
      3 N1          2.2380   -0.1720    1.3630 n         1 AXA     -0.476100
      4 CAV         3.6350   -0.2060    1.3920 c         1 AXA      0.675500
      5 OAC         4.2190   -0.3670    2.4700 o         1 AXA     -0.547500
      6 CAM         4.3770    0.0220    0.0910 c3        1 AXA      0.054400
      7 OAS         3.6540   -0.2840   -1.1050 os        1 AXA     -0.290900
      8 CAZ         2.2930   -0.1030   -1.0710 ca        1 AXA      0.138100
      9 CAG         1.6430   -0.0200   -2.3080 ca        1 AXA     -0.119000
     10 CAF         0.2560    0.0830   -2.3470 ca        1 AXA     -0.097000
     11 CAX        -0.4820    0.1110   -1.1590 ca        1 AXA     -0.204300
     12 CAL        -1.9640    0.1560   -1.2130 c3        1 AXA      0.191100
     13 N2         -2.4340    1.5960   -1.2750 n4        1 AXA     -0.658800
     14 CAW        -3.9180    1.7300   -1.3430 c         1 AXA      0.462800
     15 OAD        -4.6050    0.7180   -1.3480 o         1 AXA     -0.391100
     16 CBB        -4.4690    3.1350   -1.3980 cc        1 AXA      0.388900
     17 N3         -3.6270    4.1590   -1.4590 nd        1 AXA     -0.529100
     18 N4         -5.8630    3.2440   -1.3850 n         1 AXA     -0.449400
     19 CBD        -6.4820    4.5060   -1.4340 c         1 AXA      0.774100
     20 OAE        -7.7320    4.5220   -1.4710 o         1 AXA     -0.720500
     21 CBF        -5.5920    5.6620   -1.4590 cc        1 AXA     -0.182600
     22 CBC        -5.8750    7.0550   -1.4440 cc        1 AXA     -0.052300
     23 CBE        -4.1810    5.4190   -1.4870 cd        1 AXA      0.048300
     24 SAT        -3.3230    6.8450   -1.5190 ss        1 AXA      0.310200
     25 CBA        -4.6790    7.7870   -1.4770 cd        1 AXA     -0.104400
     26 CAJ        -4.6120    9.2630   -1.4490 c3        1 AXA     -0.030100
     27 CAI        -5.8850    9.8490   -0.8700 c3        1 AXA     -0.076400
     28 CAK        -7.0950    9.2350   -1.5350 c3        1 AXA     -0.082400
     29 CBG        -7.1910    7.7300   -1.2700 c3        1 AXA      0.001600
     30 CAN        -8.3030    7.1520   -2.1500 c3        1 AXA     -0.136400
     31 CAU        -9.4070    6.5770   -1.3110 c         1 AXA      0.572100
     32 OAB        -9.7030    6.7960   -0.1500 o         1 AXA     -0.399100
     33 N5        -10.3120    5.5790   -2.0110 n4        1 AXA     -0.761400
     34 HAH        -0.4380    0.0280    1.0120 ha        1 AXA      0.144000
     35 HN1         1.7280   -0.3210    2.2060 hn        1 AXA      0.346500
     36 HAM         4.6980    1.0990    0.0430 h1        1 AXA      0.114700
     37 HAMA        5.2760   -0.6560    0.0400 h1        1 AXA      0.114700
     38 HAG         2.2390   -0.0590   -3.2340 ha        1 AXA      0.184000
     39 HAF        -0.2530    0.1180   -3.3220 ha        1 AXA      0.143000
     40 HAL        -2.4330   -0.3110   -0.3000 hx        1 AXA      0.117200
     41 HALA       -2.3620   -0.3650   -2.1320 hx        1 AXA      0.117200
     42 HN2        -2.0150    2.0470   -2.1020 hn        1 AXA      0.476300
     43 HN4        -6.4280    2.4200   -1.3370 hn        1 AXA      0.369500
     44 HAJ        -4.4670    9.6460   -2.4990 hc        1 AXA      0.083200
     45 HAJA       -3.7300    9.6070   -0.8440 hc        1 AXA      0.083200
     46 HAI        -5.9220    9.6720    0.2370 hc        1 AXA      0.075200
     47 HAIA       -5.8890   10.9600   -1.0340 hc        1 AXA      0.075200
     48 HAK        -7.0420    9.4220   -2.6410 hc        1 AXA      0.063700
     49 HAKA       -8.0260    9.7270   -1.1480 hc        1 AXA      0.063700
     50 HBG        -7.4670    7.5960   -0.1780 hc        1 AXA      0.100700
     51 HAN        -7.8850    6.3720   -2.8420 hc        1 AXA      0.108200
     52 HANA       -8.7600    7.9650   -2.7850 hc        1 AXA      0.108200
     53 HN5        -9.7810    4.7090   -2.1600 hn        1 AXA      0.473800
     54 HN5A      -11.1310    5.3710   -1.4260 hn        1 AXA      0.473800
     55 H22        -2.0870    2.0970   -0.4450 hn        1 AXA      0.476300
     56 H53       -10.6210    5.9430   -2.9140 hn        1 AXA      0.473800
@<TRIPOS>BOND
     1    1    2 ar
     2    1   11 ar
     3    1   34 1
     4    2    3 1
     5    2    8 ar
     6    3    4 1
     7    3   35 1
     8    4    5 2
     9    4    6 1
    10    6    7 1
    11    6   36 1
    12    6   37 1
    13    7    8 1
    14    8    9 ar
    15    9   10 ar
    16    9   38 1
    17   10   11 ar
    18   10   39 1
    19   11   12 1
    20   12   13 1
    21   12   40 1
    22   12   41 1
    23   13   14 1
    24   13   42 1
    25   13   55 1
    26   14   15 2
    27   14   16 1
    28   16   17 2
    29   16   18 1
    30   17   23 1
    31   18   19 1
    32   18   43 1
    33   19   20 2
    34   19   21 1
    35   21   22 1
    36   21   23 2
    37   22   25 2
    38   22   29 1
    39   23   24 1
    40   24   25 1
    41   25   26 1
    42   26   27 1
    43   26   44 1
    44   26   45 1
    45   27   28 1
    46   27   46 1
    47   27   47 1
    48   28   29 1
    49   28   48 1
    50   28   49 1
    51   29   30 1
    52   29   50 1
    53   30   31 1
    54   30   51 1
    55   30   52 1
    56   31   32 2
    57   31   33 1
    58   33   53 1
    59   33   54 1
    60   33   56 1
@<TRIPOS>SUBSTRUCTURE
     1 AXA         1 TEMP              0 ****  ****    0 ROOT
