@<TRIPOS>MOLECULE
AXB
   59    64     1     0     0
SMALL
bcc


@<TRIPOS>ATOM
      1 N1           0.0000     0.0000     0.0000 nz         1 AXB       0.437600
      2 CAZ          1.3730     0.0000     0.0000 cc         1 AXB      -0.742200
      3 CBF          2.4120     0.0000     1.0390 c          1 AXB       0.600300
      4 OAD          2.4140     0.0010     2.2560 o          1 AXB      -0.448100
      5 CBG          3.4600    -0.0000    -0.0110 c          1 AXB       0.529300
      6 OAE          4.6760    -0.0010    -0.0450 o          1 AXB      -0.392100
      7 CBD          2.3640    -0.0070    -0.9910 cd         1 AXB       0.068800
      8 N2           2.3260    -0.0180    -2.3630 nh         1 AXB      -0.155400
      9 CAM          3.5610    -0.0230    -3.1630 c3         1 AXB       0.128800
     10 CAK          3.6140    -1.3400    -3.9370 c3         1 AXB       0.021900
     11 CAP          1.0530    -0.0290    -3.0910 c3         1 AXB       0.215100
     12 CAY          1.1210    -1.0300    -4.2160 ca         1 AXB      -0.151300
     13 CAJ         -0.0610    -1.3510    -4.8700 ca         1 AXB      -0.068000
     14 CAX          2.2950    -1.6210    -4.6070 ca         1 AXB      -0.079300
     15 CAI          2.2870    -2.5260    -5.6610 ca         1 AXB      -0.075000
     16 CAH          1.1120    -2.8360    -6.3130 ca         1 AXB      -0.046000
     17 CAW         -0.0600    -2.2530    -5.9150 ca         1 AXB      -0.104300
     18 CAO         -1.3480    -2.5960    -6.6180 c3         1 AXB       0.106300
     19 N3          -1.5530    -1.6750    -7.7390 ns         1 AXB      -0.163900
     20 CAV         -2.6470    -1.7920    -8.5170 c          1 AXB       0.497800
     21 OAB         -3.4650    -2.6630    -8.2880 o          1 AXB      -0.640100
     22 CBB         -2.8550    -0.8610    -9.6480 cc         1 AXB       0.240900
     23 N4          -1.9640     0.0650    -9.8730 nd         1 AXB      -0.500100
     24 CBH         -2.0850     0.9450   -10.8820 cd         1 AXB       0.248300
     25 SAU         -1.0460     2.2660   -11.3910 ss         1 AXB      -0.217800
     26 CBA         -2.1340     2.6850   -12.7150 cd         1 AXB       0.039600
     27 CAQ         -1.8430     3.8450   -13.6560 c3         1 AXB       0.086700
     28 SBK         -2.8380     3.6530   -15.1610 s6         1 AXB       0.797000
     29 OAF         -2.9330     4.9120   -15.8120 o          1 AXB      -0.570800
     30 OAG         -2.3620     2.5260   -15.8850 o          1 AXB      -0.570800
     31 CAN         -4.4540     3.2440   -14.4330 c3         1 AXB      -0.004600
     32 CAL         -4.3410     1.8940   -13.7380 c3         1 AXB       0.062900
     33 CBC         -3.1870     1.8680   -12.7460 cc         1 AXB      -0.046300
     34 CBI         -3.1850     0.8830   -11.7240 cc         1 AXB      -0.215600
     35 CBE         -4.1900    -0.1690   -11.4620 c          1 AXB       0.617100
     36 OAC         -5.1810    -0.2800   -12.1610 o          1 AXB      -0.646500
     37 N5          -3.9720    -1.0060   -10.4250 ns         1 AXB       0.053600
     38 HN1         -0.3340     0.0650     0.9410 hn         1 AXB       0.178800
     39 HN1A        -0.3340    -0.8480    -0.4140 hn         1 AXB       0.178800
     40 HAM          4.4150     0.0310    -2.4980 h1         1 AXB       0.062700
     41 HAMA         3.5310     0.8000    -3.8670 h1         1 AXB       0.062700
     42 HAK          3.8220    -2.1420    -3.2380 hc         1 AXB       0.049700
     43 HAKA         4.3780    -1.2600    -4.7000 hc         1 AXB       0.049700
     44 HAP          0.2640    -0.3250    -2.4090 h1         1 AXB       0.027700
     45 HAPA         0.8820     0.9550    -3.5100 h1         1 AXB       0.027700
     46 HAJ         -0.9900    -0.8910    -4.5580 ha         1 AXB       0.109000
     47 HAI          3.2140    -2.9890    -5.9770 ha         1 AXB       0.124000
     48 HAH          1.1160    -3.5440    -7.1320 ha         1 AXB       0.127000
     49 HAO         -2.1740    -2.5080    -5.9230 h1         1 AXB       0.036700
     50 HAOA        -1.2960    -3.6120    -6.9910 h1         1 AXB       0.036700
     51 HN3         -0.8830    -0.9550    -7.9240 hn         1 AXB       0.199500
     52 HAQ         -2.1010     4.7780   -13.1690 h1         1 AXB       0.080200
     53 HAQA        -0.7910     3.8440   -13.9150 h1         1 AXB       0.080200
     54 HAN         -5.2020     3.1890   -15.2150 h1         1 AXB       0.073700
     55 HANA        -4.7290     4.0030   -13.7100 h1         1 AXB       0.073700
     56 HAL         -5.2650     1.6930   -13.2080 hc         1 AXB       0.059200
     57 HALA        -4.1810     1.1260   -14.4850 hc         1 AXB       0.059200
     58 HN5         -4.6290    -1.7330   -10.2250 hn         1 AXB       0.208500
     59 H13         -0.3340     0.7770    -0.5350 hn         1 AXB       0.178800
@<TRIPOS>BOND
     1     1     2 1   
     2     1    38 1   
     3     1    39 1   
     4     1    59 1   
     5     2     3 1   
     6     2     7 2   
     7     3     4 2   
     8     3     5 1   
     9     5     6 2   
    10     5     7 1   
    11     7     8 1   
    12     8     9 1   
    13     8    11 1   
    14     9    10 1   
    15     9    40 1   
    16     9    41 1   
    17    10    14 1   
    18    10    42 1   
    19    10    43 1   
    20    11    12 1   
    21    11    44 1   
    22    11    45 1   
    23    12    13 ar  
    24    12    14 ar  
    25    13    17 ar  
    26    13    46 1   
    27    14    15 ar  
    28    15    16 ar  
    29    15    47 1   
    30    16    17 ar  
    31    16    48 1   
    32    17    18 1   
    33    18    19 1   
    34    18    49 1   
    35    18    50 1   
    36    19    20 1   
    37    19    51 1   
    38    20    21 2   
    39    20    22 1   
    40    22    23 2   
    41    22    37 1   
    42    23    24 1   
    43    24    25 1   
    44    24    34 2   
    45    25    26 1   
    46    26    27 1   
    47    26    33 2   
    48    27    28 1   
    49    27    52 1   
    50    27    53 1   
    51    28    29 2   
    52    28    30 2   
    53    28    31 1   
    54    31    32 1   
    55    31    54 1   
    56    31    55 1   
    57    32    33 1   
    58    32    56 1   
    59    32    57 1   
    60    33    34 1   
    61    34    35 1   
    62    35    36 2   
    63    35    37 1   
    64    37    58 1   
@<TRIPOS>SUBSTRUCTURE
     1 AXB         1 TEMP              0 ****  ****    0 ROOT
