@<TRIPOS>MOLECULE
molecule
   39    43     1     0     0
SMALL
bcc


@<TRIPOS>ATOM
      1 CAN          0.0000     0.0000     0.0000 c3         1 AXC      -0.080400
      2 CAL          1.5070     0.0000     0.0000 cc         1 AXC       0.568300
      3 NAM          2.2740     0.0000     1.0860 nc         1 AXC      -0.444300
      4 NAK          2.2620    -0.0060    -1.0700 nd         1 AXC      -0.572100
      5 NAI          3.5940    -0.0040    -0.6350 na         1 AXC      -0.005800
      6 CAJ          3.5420    -0.0010     0.7320 cd         1 AXC       0.050700
      7 CAE          4.8140    -0.0010     1.4640 ca         1 AXC      -0.141300
      8 CAF          4.8660    -0.0010     2.8570 ca         1 AXC      -0.069000
      9 CAA          6.0870    -0.0020     3.4930 ca         1 AXC      -0.141000
     10 CAB          7.2650    -0.0020     2.7570 ca         1 AXC      -0.100000
     11 CAC          7.2380    -0.0020     1.3810 ca         1 AXC      -0.178300
     12 CAD          6.0110    -0.0020     0.7120 ca         1 AXC       0.435600
     13 NAG          5.9450    -0.0020    -0.6410 nc         1 AXC      -0.747000
     14 CAH          4.8010    -0.0080    -1.2790 cd         1 AXC       0.686800
     15 SAO          4.8180    -0.0170    -3.0410 ss         1 AXC      -0.195400
     16 CAP          6.6030    -0.0200    -3.3380 c3         1 AXC      -0.015600
     17 CAQ          6.8660    -0.0270    -4.8220 cc         1 AXC       0.414800
     18 NAU          6.9960     1.0350    -5.5610 nd         1 AXC      -0.579100
     19 CAT          7.2250     0.6690    -6.8490 ca         1 AXC       0.088400
     20 CAY          7.4330     1.3840    -8.0320 ca         1 AXC      -0.064000
     21 CAX          7.6420     0.7150    -9.2040 ca         1 AXC      -0.146000
     22 CAW          7.6480    -0.6720    -9.2360 ca         1 AXC      -0.107000
     23 CAV          7.4440    -1.3980    -8.0820 ca         1 AXC      -0.130000
     24 CAS          7.2310    -0.7350    -6.8810 ca         1 AXC      -0.086200
     25 NAR          7.0070    -1.1470    -5.5820 na         1 AXC      -0.257300
     26 HAN1        -0.3610    -0.9920     0.2410 hc         1 AXC       0.062367
     27 HAN2        -0.3610     0.7050     0.7390 hc         1 AXC       0.062367
     28 HAN3        -0.3610     0.2870    -0.9800 hc         1 AXC       0.062367
     29 HAF          3.9500    -0.0000     3.4360 ha         1 AXC       0.156000
     30 HAA          6.1300    -0.0020     4.5750 ha         1 AXC       0.139000
     31 HAB          8.2180    -0.0030     3.2730 ha         1 AXC       0.138000
     32 HAC          8.1640    -0.0020     0.8190 ha         1 AXC       0.150000
     33 HAP1         7.0440     0.8670    -2.8970 h1         1 AXC       0.099200
     34 HAP2         7.0430    -0.9020    -2.8890 h1         1 AXC       0.099200
     35 HAR          7.0860    -2.0840    -5.2400 hn         1 AXC       0.305700
     36 HAY          7.4310     2.4670    -8.0180 ha         1 AXC       0.144000
     37 HAX          7.8030     1.2740   -10.1180 ha         1 AXC       0.135000
     38 HAW          7.8140    -1.1870   -10.1740 ha         1 AXC       0.134000
     39 HAV          7.4490    -2.4810    -8.1120 ha         1 AXC       0.128000
@<TRIPOS>BOND
     1     1     2 1
     2     2     3 1
     3     2     4 2
     4     3     6 2
     5     4     5 1
     6     5     6 1
     7     5    14 1
     8     6     7 1
     9     7     8 ar
    10     7    12 ar
    11     8     9 ar
    12     9    10 ar
    13    10    11 ar
    14    11    12 ar
    15    12    13 1
    16    13    14 2
    17    14    15 1
    18    15    16 1
    19    16    17 1
    20    17    18 2
    21    17    25 1
    22    18    19 1
    23    19    20 ar
    24    19    24 ar
    25    20    21 ar
    26    21    22 ar
    27    22    23 ar
    28    23    24 ar
    29    24    25 1
    30     1    26 1
    31     1    27 1
    32     1    28 1
    33     8    29 1
    34     9    30 1
    35    10    31 1
    36    11    32 1
    37    16    33 1
    38    16    34 1
    39    25    35 1
    40    20    36 1
    41    21    37 1
    42    22    38 1
    43    23    39 1
@<TRIPOS>SUBSTRUCTURE
     1 AXC         1 TEMP              0 ****  ****    0 ROOT
