@<TRIPOS>MOLECULE
AXC
   39    43     1     0     0
SMALL
bcc


@<TRIPOS>ATOM
      1 CAN         0.2150   -0.2130   -0.3930 c3        1 AXC     -0.100400
      2 CAL         1.6900   -0.1400   -0.2340 cc        1 AXC      0.516300
      3 NAM         2.3150   -0.1630    1.0390 nc        1 AXC     -0.374300
      4 NAK         2.5800   -0.0420   -1.2750 nd        1 AXC     -0.544100
      5 NAI         3.7840   -0.0020   -0.6800 na        1 AXC     -0.014800
      6 CAJ         3.6340   -0.0760    0.7520 cd        1 AXC      0.017700
      7 CAE         4.8240   -0.0480    1.5710 ca        1 AXC     -0.127300
      8 CAF         4.7700   -0.1150    2.9710 ca        1 AXC     -0.076000
      9 CAA         5.9450   -0.0830    3.7050 ca        1 AXC     -0.138000
     10 CAB         7.1830    0.0160    3.0520 ca        1 AXC     -0.106000
     11 CAC         7.2590    0.0830    1.6720 ca        1 AXC     -0.175300
     12 CAD         6.0740    0.0530    0.8910 ca        1 AXC      0.417600
     13 NAG         6.1650    0.1240   -0.5000 nc        1 AXC     -0.723000
     14 CAH         5.0760    0.1010   -1.2460 cd        1 AXC      0.653800
     15 SAO         5.1420    0.1980   -2.9650 ss        1 AXC     -0.168400
     16 CAP         6.8800    0.2740   -3.3210 c3        1 AXC     -0.054600
     17 CAQ         6.9890    0.2210   -4.8000 cc        1 AXC      0.400800
     18 NAU         7.3360    1.2530   -5.6020 nd        1 AXC     -0.536100
     19 CAT         7.3310    0.7330   -6.9080 ca        1 AXC      0.059400
     20 CAY         7.6100    1.3360   -8.1450 ca        1 AXC     -0.063000
     21 CAX         7.5200    0.5580   -9.2880 ca        1 AXC     -0.154000
     22 CAW         7.1610   -0.8020   -9.2360 ca        1 AXC     -0.106000
     23 CAV         6.8790   -1.4390   -8.0380 ca        1 AXC     -0.137000
     24 CAS         6.9630   -0.6730   -6.8670 ca        1 AXC     -0.065200
     25 NAR         6.7660   -0.9790   -5.5210 na        1 AXC     -0.274300
     26 HAN1       -0.2610    0.6530    0.1310 hc        1 AXC      0.063700
     27 HAN2       -0.1640   -1.1610    0.0640 hc        1 AXC      0.063700
     28 HAN3       -0.0750   -0.1890   -1.4720 hc        1 AXC      0.063700
     29 HAF         3.7920   -0.1910    3.4730 ha        1 AXC      0.159000
     30 HAA         5.9110   -0.1350    4.8030 ha        1 AXC      0.142000
     31 HAB         8.1070    0.0410    3.6490 ha        1 AXC      0.140000
     32 HAC         8.2370    0.1620    1.1720 ha        1 AXC      0.152000
     33 HAP1        7.4310   -0.5800   -2.8510 h1        1 AXC      0.109700
     34 HAP2        7.3300    1.2220   -2.9260 h1        1 AXC      0.109700
     35 HAR         6.4370   -1.8300   -5.1510 hn        1 AXC      0.310700
     36 HAY         7.8910    2.3970   -8.1930 ha        1 AXC      0.150000
     37 HAX         7.7340    1.0110  -10.2680 ha        1 AXC      0.135000
     38 HAW         7.1040   -1.3720  -10.1760 ha        1 AXC      0.134000
     39 HAV         6.6000   -2.5000   -8.0050 ha        1 AXC      0.137000
@<TRIPOS>BOND
     1    1    2 1   
     2    1   26 1   
     3    1   27 1   
     4    1   28 1   
     5    2    3 1   
     6    2    4 2   
     7    3    6 2   
     8    4    5 1   
     9    5    6 1   
    10    5   14 1   
    11    6    7 1   
    12    7    8 ar  
    13    7   12 ar  
    14    8    9 ar  
    15    8   29 1   
    16    9   10 ar  
    17    9   30 1   
    18   10   11 ar  
    19   10   31 1   
    20   11   12 ar  
    21   11   32 1   
    22   12   13 1   
    23   13   14 2   
    24   14   15 1   
    25   15   16 1   
    26   16   17 1   
    27   16   33 1   
    28   16   34 1   
    29   17   18 2   
    30   17   25 1   
    31   18   19 1   
    32   19   20 ar  
    33   19   24 ar  
    34   20   21 ar  
    35   20   36 1   
    36   21   22 ar  
    37   21   37 1   
    38   22   23 ar  
    39   22   38 1   
    40   23   24 ar  
    41   23   39 1   
    42   24   25 1   
    43   25   35 1   
@<TRIPOS>SUBSTRUCTURE
     1 AXC         1 TEMP              0 ****  ****    0 ROOT
