@<TRIPOS>MOLECULE
molecule
   48    51     1     0     0
SMALL
bcc


@<TRIPOS>ATOM
      1 C4           0.0000     0.0000     0.0000 ca         1 AXE      -0.170000
      2 C5           1.4240     0.0120     2.4150 ca         1 AXE      -0.269300
      3 C10          2.0830     0.0000     1.2050 ca         1 AXE       0.163100
      4 C15         -4.8950     0.6360    -1.0440 ca         1 AXE      -0.079300
      5 C17          1.2530    -0.0030    -2.3760 c3         1 AXE       0.126700
      6 C20         -4.1940     0.6110    -2.2100 ca         1 AXE      -0.128000
      7 C21         -6.6720     1.8580    -2.1800 ca         1 AXE      -0.031000
      8 C22         -6.9060     1.3080     0.1810 ca         1 AXE      -0.119000
      9 C24         -5.9170     1.8130    -3.3650 ca         1 AXE      -0.112000
     10 C26         -8.1210     1.9230     0.1830 ca         1 AXE      -0.122000
     11 C18          4.1140    -0.0110     2.4400 c3         1 AXE       0.124700
     12 O14          3.4410    -0.0120     1.1800 os         1 AXE      -0.309900
     13 C9           1.3660     0.0000     0.0000 ca         1 AXE       0.113100
     14 O13          2.0390    -0.0020    -1.1830 os         1 AXE      -0.312900
     15 C1          -0.6930     0.0070     1.2160 ca         1 AXE      -0.321600
     16 C2           0.0240     0.0120     2.4390 ca         1 AXE       0.487600
     17 N6          -0.6650     0.0180     3.5910 nb         1 AXE      -0.779000
     18 C11         -1.9760     0.0190     3.5810 ca         1 AXE       0.725900
     19 N8          -2.6880     0.0130     2.4640 nb         1 AXE      -0.840000
     20 C3          -2.1070     0.0070     1.2710 ca         1 AXE       0.750200
     21 N7          -2.8610     0.0010     0.1170 nu         1 AXE      -0.897900
     22 C12         -4.3240     0.0010     0.1970 c3         1 AXE       0.284800
     23 C16         -4.8290    -1.4380     0.3120 c3         1 AXE      -0.107100
     24 C19         -6.1530     1.2620    -1.0030 ca         1 AXE      -0.027000
     25 C27         -8.6310     2.5100    -0.9730 ca         1 AXE      -0.122000
     26 C25         -7.9280     2.4840    -2.1400 ca         1 AXE      -0.116000
     27 C23         -4.7030     1.1970    -3.3670 ca         1 AXE      -0.124000
     28 H1          -0.5440     0.0000    -0.9370 ha         1 AXE       0.133000
     29 H2           1.9810     0.1450     3.3340 ha         1 AXE       0.163000
     30 H3           0.6010    -0.8690    -2.3780 h1         1 AXE       0.040700
     31 H4           1.9070    -0.0410    -3.2380 h1         1 AXE       0.040700
     32 H5           0.6550     0.8990    -2.4150 h1         1 AXE       0.040700
     33 H6          -3.2250     0.1280    -2.2390 ha         1 AXE       0.117000
     34 H7          -6.5230     0.8570     1.0890 ha         1 AXE       0.141000
     35 H8          -6.3000     2.2640    -4.2730 ha         1 AXE       0.135000
     36 H9          -8.7000     1.9580     1.0980 ha         1 AXE       0.131000
     37 H10          5.1840    -0.0580     2.2780 h1         1 AXE       0.046033
     38 H11          3.7980    -0.8710     3.0190 h1         1 AXE       0.046033
     39 H12          3.8700     0.8960     2.9790 h1         1 AXE       0.046033
     40 H13         -2.5000     0.0240     4.5290 h5         1 AXE       0.053100
     41 H14         -2.4090    -0.0400    -0.7750 hn         1 AXE       0.449800
     42 H15         -4.6370     0.5650     1.0680 h1         1 AXE       0.094700
     43 H16         -4.0740    -2.1170    -0.0670 hc         1 AXE       0.047033
     44 H17         -5.7380    -1.5490    -0.2660 hc         1 AXE       0.047033
     45 H18         -5.0310    -1.6670     1.3520 hc         1 AXE       0.047033
     46 H19         -9.6000     2.9930    -0.9440 ha         1 AXE       0.130000
     47 H20         -8.3360     2.9440    -3.0320 ha         1 AXE       0.134000
     48 H21         -4.1230     1.1630    -4.2820 ha         1 AXE       0.129000
@<TRIPOS>BOND
     1    23    22 1
     2    22     4 1
     3    22    21 1
     4     6     4 ar
     5     6    27 ar
     6     4    24 ar
     7    21    20 1
     8    27     9 ar
     9    24     8 ar
    10    24     7 ar
    11     8    10 ar
    12     9     7 ar
    13     7    26 ar
    14    19    20 ar
    15    19    18 ar
    16    20    15 ar
    17    10    25 ar
    18    26    25 ar
    19    18    17 ar
    20    15     1 ar
    21    15    16 ar
    22     1    13 ar
    23     5    14 1
    24    17    16 ar
    25    16     2 ar
    26    13    14 1
    27    13     3 ar
    28     2     3 ar
    29     3    12 1
    30    12    11 1
    31     1    28 1
    32     2    29 1
    33     5    30 1
    34     5    31 1
    35     5    32 1
    36     6    33 1
    37     8    34 1
    38     9    35 1
    39    10    36 1
    40    11    37 1
    41    11    38 1
    42    11    39 1
    43    18    40 1
    44    21    41 1
    45    22    42 1
    46    23    43 1
    47    23    44 1
    48    23    45 1
    49    25    46 1
    50    26    47 1
    51    27    48 1
@<TRIPOS>SUBSTRUCTURE
     1 AXE         1 TEMP              0 ****  ****    0 ROOT
