@<TRIPOS>MOLECULE
AXF
   76    79     1     0     0
SMALL
bcc


@<TRIPOS>ATOM
      1 C2           0.0000     0.0000     0.0000 c3         1 AXF      -0.158000
      2 C4           1.5320     0.0000     0.0000 c3         1 AXF      -0.079000
      3 S1          -0.6030    -1.4520     0.9040 ss         1 AXF       0.001000
      4 N6           2.0270     0.0000     1.3650 n7         1 AXF      -0.004000
      5 C8           1.6050     1.1970     2.0690 c3         1 AXF      -0.092000
      6 C11          0.0770     1.2790     2.1340 c3         1 AXF      -0.122000
      7 C14         -0.4860     1.2730     0.7060 c3         1 AXF      -0.100000
      8 C17          2.0480    -1.2020    -0.7520 c2         1 AXF       0.195000
      9 N18          2.5150    -1.0160    -2.0170 ns         1 AXF      -0.037000
     10 C20          3.1950    -2.1290    -2.6960 c3         1 AXF      -0.056000
     11 C22          2.2990    -3.3320    -2.7980 c2         1 AXF       0.189000
     12 N23          1.4120    -3.4320    -3.8070 ns         1 AXF      -0.007000
     13 C25          0.7110    -4.6900    -4.0670 c3         1 AXF      -0.019000
     14 C27         -0.3130    -4.9550    -2.9640 c3         1 AXF      -0.185000
     15 S30         -1.9880    -4.8470    -3.6550 ss         1 AXF      -0.080000
     16 C31         -2.9490    -4.6840    -2.1250 DU         1 AXF      -0.080000
     17 C34         -2.8270    -3.2750    -1.6050 c2         1 AXF      -0.098000
     18 C36         -2.3570    -3.0630    -0.4010 c2         1 AXF      -0.051000
     19 C38         -2.2290    -1.6550     0.1220 DU         1 AXF      -0.105000
     20 C41         -0.0050    -4.6030    -5.4180 c3         1 AXF       0.022000
     21 O43         -0.9500    -3.5320    -5.3880 oh         1 AXF      -0.295000
     22 C45          1.0200    -4.3490    -6.5240 c3         1 AXF      -0.126000
     23 C48          0.3240    -4.4000    -7.8860 c3         1 AXF      -0.116000
     24 C50          1.3110    -3.9840    -8.9780 c3         1 AXF      -0.109000
     25 C54         -0.1560    -5.8030    -8.1520 c2         1 AXF       0.214000
     26 O55          0.0370    -6.6770    -7.3340 o          1 AXF      -0.403000
     27 N56         -0.8030    -6.0880    -9.3010 ns         1 AXF      -0.009000
     28 C58         -1.2710    -7.4520    -9.5600 c3         1 AXF      -0.069000
     29 C61         -1.9660    -7.5030   -10.9210 c3         1 AXF      -0.122000
     30 C64         -2.4550    -8.9280   -11.1910 c3         1 AXF      -0.100000
     31 C67         -3.1510    -8.9780   -12.5520 c3         1 AXF      -0.112000
     32 O71          2.3780    -4.2230    -1.9750 o          1 AXF      -0.356000
     33 C72          4.4840    -2.4960    -1.9580 c3         1 AXF      -0.131000
     34 O76          2.0300    -2.2940    -0.2300 o          1 AXF      -0.285000
     35 H2          -0.3670    -0.0160    -1.0190 h1         1 AXF       0.082000
     36 H4           1.8780     0.9000    -0.4930 h1         1 AXF       0.042000
     37 HN6          3.0270    -0.0470     1.3570 hn         1 AXF       0.051000
     38 H81          2.0020     1.1750     3.0770 h1         1 AXF       0.042500
     39 H82          1.9860     2.0670     1.5490 h1         1 AXF       0.042500
     40 H111        -0.3080     0.4250     2.6770 hc         1 AXF       0.077000
     41 H112        -0.2140     2.1950     2.6330 hc         1 AXF       0.077000
     42 H141        -0.1290     2.1450     0.1710 hc         1 AXF       0.055000
     43 H142        -1.5680     1.2780     0.7430 hc         1 AXF       0.055000
     44 H18          2.2480    -0.2020    -2.5350 hn         1 AXF       0.086000
     45 H20          3.4540    -1.8100    -3.6980 h1         1 AXF       0.059000
     46 H23          1.2380    -2.6390    -4.3920 hn         1 AXF       0.095000
     47 H25          1.4280    -5.5010    -4.0930 h1         1 AXF       0.095000
     48 H271        -0.1980    -4.2180    -2.1790 h1         1 AXF       0.101000
     49 H272        -0.1550    -5.9460    -2.5550 h1         1 AXF       0.101000
     50 H311        -3.9900    -4.9060    -2.3270 ha         1 AXF       0.087500
     51 H312        -2.5690    -5.3770    -1.3840 ha         1 AXF       0.087500
     52 H34         -3.6260    -3.9570    -1.3390 DU         1 AXF       0.024000
     53 H36         -3.1840    -2.4740    -0.0230 DU         1 AXF       0.030000
     54 H381        -2.3260    -0.9540    -0.6980 ha         1 AXF       0.081500
     55 H382        -3.0070    -1.4670     0.8520 ha         1 AXF       0.081500
     56 H41         -0.5230    -5.5350    -5.6130 h1         1 AXF       0.114000
     57 H43         -1.5890    -3.6570    -6.0710 ho         1 AXF       0.194000
     58 H451         1.4680    -3.3730    -6.3840 hc         1 AXF       0.071500
     59 H452         1.7900    -5.1090    -6.4840 hc         1 AXF       0.071500
     60 H48         -0.5210    -3.7230    -7.8860 hc         1 AXF       0.077000
     61 H501         1.7850    -4.8650    -9.3920 hc         1 AXF       0.047333
     62 H502         0.7800    -3.4570    -9.7630 hc         1 AXF       0.047333
     63 H503         2.0660    -3.3330    -8.5540 hc         1 AXF       0.047333
     64 H56         -0.9410    -5.3730    -9.9880 hn         1 AXF       0.089000
     65 H581        -1.9690    -7.7470    -8.7860 h1         1 AXF       0.068000
     66 H582        -0.4250    -8.1290    -9.5610 h1         1 AXF       0.068000
     67 H611        -2.8110    -6.8250   -10.9190 hc         1 AXF       0.055500
     68 H612        -1.2680    -7.2070   -11.6940 hc         1 AXF       0.055500
     69 H641        -3.1530    -9.2230   -10.4180 hc         1 AXF       0.056000
     70 H642        -1.6100    -9.6050   -11.1930 hc         1 AXF       0.056000
     71 H671        -3.5100    -9.9830   -12.7370 hc         1 AXF       0.041000
     72 H672        -2.4480    -8.6980   -13.3280 hc         1 AXF       0.041000
     73 H673        -3.9870    -8.2890   -12.5560 hc         1 AXF       0.041000
     74 H721         4.9280    -1.6010    -1.5390 hc         1 AXF       0.062667
     75 H722         4.2580    -3.1940    -1.1610 hc         1 AXF       0.062667
     76 H723         5.1790    -2.9530    -2.6520 hc         1 AXF       0.062667
@<TRIPOS>BOND
     1     1     2 1   
     2     1     3 1   
     3     1     7 1   
     4     1    35 1   
     5     2     4 1   
     6     2     8 1   
     7     2    36 1   
     8     3    19 1   
     9     4     5 1   
    10     4    37 1   
    11     5     6 1   
    12     5    38 1   
    13     5    39 1   
    14     6     7 1   
    15     6    40 1   
    16     6    41 1   
    17     7    42 1   
    18     7    43 1   
    19     8     9 1   
    20     8    34 1   
    21     9    10 1   
    22     9    44 1   
    23    10    11 1   
    24    10    33 1   
    25    10    45 1   
    26    11    12 1   
    27    11    32 1   
    28    12    13 1   
    29    12    46 1   
    30    13    14 1   
    31    13    20 1   
    32    13    47 1   
    33    14    15 1   
    34    14    48 1   
    35    14    49 1   
    36    15    16 1   
    37    16    17 1   
    38    16    50 1   
    39    16    51 1   
    40    16    52 1   
    41    17    18 1   
    42    17    52 1   
    43    18    19 1   
    44    18    53 1   
    45    19    53 1   
    46    19    54 1   
    47    19    55 1   
    48    20    21 1   
    49    20    22 1   
    50    20    56 1   
    51    21    57 1   
    52    22    23 1   
    53    22    58 1   
    54    22    59 1   
    55    23    24 1   
    56    23    25 1   
    57    23    60 1   
    58    24    61 1   
    59    24    62 1   
    60    24    63 1   
    61    25    26 1   
    62    25    27 1   
    63    27    28 1   
    64    27    64 1   
    65    28    29 1   
    66    28    65 1   
    67    28    66 1   
    68    29    30 1   
    69    29    67 1   
    70    29    68 1   
    71    30    31 1   
    72    30    69 1   
    73    30    70 1   
    74    31    71 1   
    75    31    72 1   
    76    31    73 1   
    77    33    74 1   
    78    33    75 1   
    79    33    76 1   
@<TRIPOS>SUBSTRUCTURE
     1 AXF         1 TEMP              0 ****  ****    0 ROOT
