@<TRIPOS>MOLECULE
molecule
   76    77     1     0     0
SMALL
bcc


@<TRIPOS>ATOM
      1 C2           0.0000     0.0000     0.0000 c3         1 AXF       0.020400
      2 C4           1.5320     0.0000     0.0000 c3         1 AXF       0.115500
      3 S1          -0.6030    -1.4520     0.9040 ss         1 AXF      -0.240200
      4 N6           2.0270     0.0000     1.3650 n7         1 AXF      -0.785200
      5 C8           1.6050     1.1970     2.0690 c3         1 AXF       0.161800
      6 C11          0.0770     1.2790     2.1340 c3         1 AXF      -0.084400
      7 C14         -0.4860     1.2730     0.7060 c3         1 AXF      -0.077400
      8 C17          2.0480    -1.2020    -0.7520 c          1 AXF       0.641100
      9 N18          2.5150    -1.0160    -2.0170 ns         1 AXF      -0.598900
     10 C20          3.1950    -2.1290    -2.6960 c3         1 AXF       0.051700
     11 C22          2.2990    -3.3320    -2.7980 c          1 AXF       0.647100
     12 N23          1.4120    -3.4320    -3.8070 ns         1 AXF      -0.579900
     13 C25          0.7110    -4.6900    -4.0670 c3         1 AXF       0.147700
     14 C27         -0.3130    -4.9550    -2.9640 c3         1 AXF       0.011700
     15 S30         -1.9880    -4.8470    -3.6550 ss         1 AXF      -0.348200
     16 C31         -2.9490    -4.6840    -2.1250 c3         1 AXF       0.033900
     17 C34         -2.8270    -3.2750    -1.6050 c2         1 AXF      -0.170200
     18 C36         -2.3570    -3.0630    -0.4010 c2         1 AXF      -0.158200
     19 C38         -2.2290    -1.6550     0.1220 c3         1 AXF       0.019900
     20 C41         -0.0050    -4.6030    -5.4180 c3         1 AXF       0.113100
     21 O43         -0.9500    -3.5320    -5.3880 oh         1 AXF      -0.591800
     22 C45          1.0200    -4.3490    -6.5240 c3         1 AXF      -0.083400
     23 C48          0.3240    -4.4000    -7.8860 c3         1 AXF      -0.153700
     24 C50          1.3110    -3.9840    -8.9780 c3         1 AXF      -0.087100
     25 C54         -0.1560    -5.8030    -8.1520 c          1 AXF       0.656100
     26 O55          0.0370    -6.6770    -7.3340 o          1 AXF      -0.610100
     27 N56         -0.8030    -6.0880    -9.3010 ns         1 AXF      -0.586900
     28 C58         -1.2710    -7.4520    -9.5600 c3         1 AXF       0.109000
     29 C61         -1.9660    -7.5030   -10.9210 c3         1 AXF      -0.101400
     30 C64         -2.4550    -8.9280   -11.1910 c3         1 AXF      -0.080400
     31 C67         -3.1510    -8.9780   -12.5520 c3         1 AXF      -0.092100
     32 O71          2.3780    -4.2230    -1.9750 o          1 AXF      -0.568100
     33 C72          4.4840    -2.4960    -1.9580 c3         1 AXF      -0.104100
     34 O76          2.0300    -2.2940    -0.2300 o          1 AXF      -0.506100
     35 H2          -0.3660    -0.0160    -1.0190 h1         1 AXF       0.068700
     36 H4           1.8780     0.9000    -0.4930 h1         1 AXF       0.015700
     37 HN6          3.0270    -0.0470     1.3580 hn         1 AXF       0.363800
     38 H81          2.0020     1.1750     3.0770 h1         1 AXF       0.030200
     39 H82          1.9860     2.0670     1.5490 h1         1 AXF       0.030200
     40 H111        -0.3080     0.4250     2.6770 hc         1 AXF       0.063200
     41 H112        -0.2140     2.1950     2.6330 hc         1 AXF       0.063200
     42 H141        -1.5680     1.2780     0.7430 hc         1 AXF       0.044200
     43 H142        -0.1290     2.1450     0.1710 hc         1 AXF       0.044200
     44 H18          2.5500    -0.0950    -2.4080 hn         1 AXF       0.312500
     45 H20          3.4540    -1.8100    -3.6980 h1         1 AXF       0.049700
     46 H23          1.2320    -2.6370    -4.3880 hn         1 AXF       0.320500
     47 H25          1.4280    -5.5010    -4.0930 h1         1 AXF       0.081700
     48 H271        -0.1550    -5.9460    -2.5550 h1         1 AXF       0.083700
     49 H272        -0.1980    -4.2180    -2.1790 h1         1 AXF       0.083700
     50 H311        -2.5690    -5.3770    -1.3840 h1         1 AXF       0.069700
     51 H312        -3.9900    -4.9060    -2.3270 h1         1 AXF       0.069700
     52 H34         -3.1240    -2.4390    -2.2270 ha         1 AXF       0.132000
     53 H36         -2.0570    -3.9000     0.2180 ha         1 AXF       0.140000
     54 H381        -3.0070    -1.4680     0.8520 h1         1 AXF       0.063200
     55 H382        -2.3260    -0.9540    -0.6980 h1         1 AXF       0.063200
     56 H41         -0.5230    -5.5350    -5.6130 h1         1 AXF       0.091700
     57 H43         -1.7010    -3.7600    -5.9110 ho         1 AXF       0.410000
     58 H451         1.4680    -3.3730    -6.3840 hc         1 AXF       0.059200
     59 H452         1.7900    -5.1090    -6.4840 hc         1 AXF       0.059200
     60 H48         -0.5210    -3.7230    -7.8850 hc         1 AXF       0.066700
     61 H501         0.7750    -3.4900    -9.7800 hc         1 AXF       0.041367
     62 H502         2.0440    -3.3040    -8.5620 hc         1 AXF       0.041367
     63 H503         1.8120    -4.8620    -9.3660 hc         1 AXF       0.041367
     64 H56         -0.9760    -5.3640    -9.9700 hn         1 AXF       0.313500
     65 H581        -1.9690    -7.7470    -8.7860 h1         1 AXF       0.054700
     66 H582        -0.4250    -8.1290    -9.5610 h1         1 AXF       0.054700
     67 H611        -1.2680    -7.2070   -11.6940 hc         1 AXF       0.044700
     68 H612        -2.8110    -6.8250   -10.9190 hc         1 AXF       0.044700
     69 H641        -1.6100    -9.6050   -11.1930 hc         1 AXF       0.045700
     70 H642        -3.1530    -9.2230   -10.4180 hc         1 AXF       0.045700
     71 H671        -2.4520    -8.6850   -13.3260 hc         1 AXF       0.035033
     72 H672        -3.4980    -9.9860   -12.7430 hc         1 AXF       0.035033
     73 H673        -3.9950    -8.2990   -12.5520 hc         1 AXF       0.035033
     74 H721         4.2380    -2.9780    -1.0200 hc         1 AXF       0.055033
     75 H722         5.0700    -3.1720    -2.5690 hc         1 AXF       0.055033
     76 H723         5.0570    -1.5970    -1.7630 hc         1 AXF       0.055033
@<TRIPOS>BOND
     1     1     2 1
     2     1     3 1
     3     1     7 1
     4     1    35 1
     5     2     4 1
     6     2     8 1
     7     2    36 1
     8     3    19 1
     9     4     5 1
    10     4    37 1
    11     5     6 1
    12     5    38 1
    13     5    39 1
    14     6     7 1
    15     6    40 1
    16     6    41 1
    17     7    42 1
    18     7    43 1
    19     8     9 1
    20     8    34 2
    21     9    10 1
    22     9    44 1
    23    10    11 1
    24    10    33 1
    25    10    45 1
    26    11    12 1
    27    11    32 2
    28    12    13 1
    29    12    46 1
    30    13    14 1
    31    13    20 1
    32    13    47 1
    33    14    15 1
    34    14    48 1
    35    14    49 1
    36    15    16 1
    37    16    17 1
    38    16    50 1
    39    16    51 1
    40    17    18 2
    41    17    52 1
    42    18    19 1
    43    18    53 1
    44    19    54 1
    45    19    55 1
    46    20    21 1
    47    20    22 1
    48    20    56 1
    49    21    57 1
    50    22    23 1
    51    22    58 1
    52    22    59 1
    53    23    24 1
    54    23    25 1
    55    23    60 1
    56    24    61 1
    57    24    62 1
    58    24    63 1
    59    25    26 2
    60    25    27 1
    61    27    28 1
    62    27    64 1
    63    28    29 1
    64    28    65 1
    65    28    66 1
    66    29    30 1
    67    29    67 1
    68    29    68 1
    69    30    31 1
    70    30    69 1
    71    30    70 1
    72    31    71 1
    73    31    72 1
    74    31    73 1
    75    33    74 1
    76    33    75 1
    77    33    76 1
@<TRIPOS>SUBSTRUCTURE
     1 AXF         1 TEMP              0 ****  ****    0 ROOT
