@<TRIPOS>MOLECULE
molecule
   38    40     1     0     0
SMALL
bcc


@<TRIPOS>ATOM
      1 N1           0.0000     0.0000     0.0000 n3         1 AXG      -0.726600
      2 C4          -2.0140    -0.3810    -1.3060 ca         1 AXG      -0.083300
      3 C5          -2.5020    -1.6720    -1.2390 ca         1 AXG      -0.117000
      4 C6          -3.8650    -1.8930    -1.1910 ca         1 AXG      -0.128500
      5 C7          -0.5270    -0.1390    -1.3640 c3         1 AXG       0.210100
      6 C8           1.4690     0.0000     0.0000 c3         1 AXG       0.161300
      7 C10          1.4530     1.2410     2.1660 c3         1 AXG       0.051000
      8 C13          2.6590     2.1650     4.1710 cc         1 AXG      -0.161800
      9 C15          2.1860     0.5660     5.6410 cc         1 AXG      -0.208000
     10 C1          -4.7400    -0.8240    -1.2100 ca         1 AXG      -0.126000
     11 C2          -4.2520     0.4680    -1.2770 ca         1 AXG      -0.128500
     12 C3          -2.8880     0.6900    -1.3260 ca         1 AXG      -0.117000
     13 C9           1.9810     0.0000     1.4420 c3         1 AXG      -0.090400
     14 C11         -0.0770     1.2430     2.1090 c3         1 AXG      -0.090400
     15 C12         -0.5300     1.2070     0.6480 c3         1 AXG       0.161300
     16 N2           1.8920     1.2170     3.5630 na         1 AXG      -0.050100
     17 C14          2.8550     1.7910     5.4520 cc         1 AXG      -0.208000
     18 C16          1.6010     0.2420     4.4710 cd         1 AXG      -0.161800
     19 H2          -1.8160    -2.5100    -1.2240 ha         1 AXG       0.130500
     20 H3          -4.2480    -2.9050    -1.1390 ha         1 AXG       0.129500
     21 H4          -0.0440    -0.9750    -1.8540 h1         1 AXG       0.040200
     22 H5          -0.3300     0.7690    -1.9210 h1         1 AXG       0.040200
     23 H6           1.8280    -0.8860    -0.5090 h1         1 AXG       0.038950
     24 H7           1.8280     0.8860    -0.5090 h1         1 AXG       0.038950
     25 H8           1.8320     2.1310     1.6780 h1         1 AXG       0.065700
     26 H9           3.0430     3.0650     3.7060 h4         1 AXG       0.162000
     27 H10          2.1440    -0.0060     6.5590 ha         1 AXG       0.145000
     28 H11         -5.8090    -0.9970    -1.1720 ha         1 AXG       0.129000
     29 H12         -4.9380     1.3060    -1.2920 ha         1 AXG       0.129500
     30 H13         -2.5050     1.7020    -1.3780 ha         1 AXG       0.130500
     31 H14          3.0640     0.0170     1.4400 hc         1 AXG       0.061950
     32 H15          1.6290    -0.8900     1.9490 hc         1 AXG       0.061950
     33 H16         -0.4580     0.3700     2.6260 hc         1 AXG       0.061950
     34 H17         -0.4540     2.1420     2.5810 hc         1 AXG       0.061950
     35 H18         -0.1580     2.0840     0.1350 h1         1 AXG       0.038950
     36 H19         -1.6130     1.1910     0.6080 h1         1 AXG       0.038950
     37 H20          3.4260     2.3320     6.1970 ha         1 AXG       0.145000
     38 H21          1.0070    -0.6440     4.2810 h4         1 AXG       0.162000
@<TRIPOS>BOND
     1     9    17 1
     2     9    18 2
     3    17     8 2
     4    18    16 1
     5     8    16 1
     6    16     7 1
     7     7    14 1
     8     7    13 1
     9    14    15 1
    10    13     6 1
    11    15     1 1
    12     6     1 1
    13     1     5 1
    14     5     2 1
    15     2    12 ar
    16     2     3 ar
    17    12    11 ar
    18     3     4 ar
    19    11    10 ar
    20     4    10 ar
    21     3    19 1
    22     4    20 1
    23     5    21 1
    24     5    22 1
    25     6    23 1
    26     6    24 1
    27     7    25 1
    28     8    26 1
    29     9    27 1
    30    10    28 1
    31    11    29 1
    32    12    30 1
    33    13    31 1
    34    13    32 1
    35    14    33 1
    36    14    34 1
    37    15    35 1
    38    15    36 1
    39    17    37 1
    40    18    38 1
@<TRIPOS>SUBSTRUCTURE
     1 AXG         1 TEMP              0 ****  ****    0 ROOT
