@<TRIPOS>MOLECULE
AXG
   38    40     1     0     0
SMALL
bcc


@<TRIPOS>ATOM
      1 N1           0.0000     0.0000     0.0000 n3         1 AXG      -0.535600
      2 C4          -2.0140    -0.3810    -1.3060 ca         1 AXG      -0.094300
      3 C5          -2.5020    -1.6720    -1.2390 ca         1 AXG      -0.091000
      4 C6          -3.8650    -1.8930    -1.1910 ca         1 AXG      -0.100000
      5 C7          -0.5270    -0.1390    -1.3640 c3         1 AXG       0.213100
      6 C8           1.4690     0.0000     0.0000 c3         1 AXG       0.150300
      7 C10          1.4530     1.2410     2.1660 c3         1 AXG      -0.079000
      8 C13          2.6590     2.1650     4.1710 cc         1 AXG      -0.325800
      9 C15          2.1860     0.5660     5.6410 cd         1 AXG      -0.174500
     10 C1          -4.7400    -0.8240    -1.2100 ca         1 AXG      -0.099000
     11 C2          -4.2520     0.4680    -1.2770 ca         1 AXG      -0.100000
     12 C3          -2.8880     0.6900    -1.3260 ca         1 AXG      -0.091000
     13 C9           1.9810     0.0000     1.4420 c3         1 AXG      -0.037900
     14 C11         -0.0770     1.2430     2.1090 c3         1 AXG      -0.037900
     15 C12         -0.5300     1.2070     0.6480 c3         1 AXG       0.150300
     16 N2           1.8920     1.2170     3.5630 na         1 AXG       0.441900
     17 C14          2.8550     1.7910     5.4520 cd         1 AXG      -0.174500
     18 C16          1.6010     0.2420     4.4710 cc         1 AXG      -0.325800
     19 H2          -1.8160    -2.5100    -1.2240 ha         1 AXG       0.106500
     20 H3          -4.2480    -2.9050    -1.1390 ha         1 AXG       0.102500
     21 H4          -0.0440    -0.9750    -1.8540 h1         1 AXG       0.012700
     22 H5          -0.3300     0.7690    -1.9210 h1         1 AXG       0.012700
     23 H6           1.8280    -0.8860    -0.5090 h1         1 AXG       0.015200
     24 H7           1.8280     0.8860    -0.5090 h1         1 AXG       0.015200
     25 H8           1.8320     2.1310     1.6780 h1         1 AXG       0.044700
     26 H9           3.0430     3.0650     3.7060 h4         1 AXG       0.142500
     27 H10          2.1440    -0.0060     6.5590 ha         1 AXG       0.122000
     28 H11         -5.8090    -0.9970    -1.1720 ha         1 AXG       0.102000
     29 H12         -4.9380     1.3060    -1.2920 ha         1 AXG       0.102500
     30 H13         -2.5050     1.7020    -1.3780 ha         1 AXG       0.106500
     31 H14          3.0640     0.0170     1.4400 hc         1 AXG       0.032700
     32 H15          1.6290    -0.8900     1.9490 hc         1 AXG       0.032700
     33 H16         -0.4580     0.3700     2.6260 hc         1 AXG       0.032700
     34 H17         -0.4540     2.1420     2.5810 hc         1 AXG       0.032700
     35 H18         -0.1580     2.0840     0.1350 h1         1 AXG       0.015200
     36 H19         -1.6130     1.1910     0.6080 h1         1 AXG       0.015200
     37 H20          3.4260     2.3320     6.1970 ha         1 AXG       0.122000
     38 H21          1.0070    -0.6440     4.2810 h4         1 AXG       0.142500
@<TRIPOS>BOND
     1     1     5 1   
     2     1     6 1   
     3     1    15 1   
     4     2     3 ar  
     5     2     5 1   
     6     2    12 ar  
     7     3     4 ar  
     8     3    19 1   
     9     4    10 ar  
    10     4    20 1   
    11     5    21 1   
    12     5    22 1   
    13     6    13 1   
    14     6    23 1   
    15     6    24 1   
    16     7    13 1   
    17     7    14 1   
    18     7    16 1   
    19     7    25 1   
    20     8    16 1   
    21     8    17 2   
    22     8    26 1   
    23     9    17 1   
    24     9    18 2   
    25     9    27 1   
    26    10    11 ar  
    27    10    28 1   
    28    11    12 ar  
    29    11    29 1   
    30    12    30 1   
    31    13    31 1   
    32    13    32 1   
    33    14    15 1   
    34    14    33 1   
    35    14    34 1   
    36    15    35 1   
    37    15    36 1   
    38    16    18 1   
    39    17    37 1   
    40    18    38 1   
@<TRIPOS>SUBSTRUCTURE
     1 AXG         1 TEMP              0 ****  ****    0 ROOT
